ACETONE
 OpenBabel30120812293D

  4  3  0  0  0  0  0  0  0  0999 V2000
    1.0000    0.0000    0.0000 C   0  0  0  0  0
    2.5000    0.0000    0.0000 C   0  0  0  0  0
    3.2500   -1.2990    0.0000 C   0  0  0  0  0
    3.2500    1.2990    0.0000 O   0  0  0  0  0
  1  2  1  0  0  0
  2  4  2  0  0  0
  2  3  1  0  0  0
M  END
> <SMILES>
CC(C)=O

> <NAME>
ACETONE

> <BioCyc_link>


> <BioCyc_name_HTML>


> <CAS>
67-64-1

> <KEGG_ID>


> <toxTree.tree.cramer.CramerTreeResult>
1Y

> <FORMULA>
C3H6O

> <toxTree.tree.cramer.CramerRules>
Low (Class I)

$$$$
ADENINE
 OpenBabel30120812293D

 10 11  0  0  0  0  0  0  0  0999 V2000
    1.0000    0.0000    0.0000 N   0  0  0  0  0
    2.5000    0.0000    0.0000 C   0  0  0  0  0
    3.1511   -1.1758    0.0010 C   0  0  0  0  0
    2.7618   -2.5008    0.0020 N   0  0  0  0  0
    3.8698   -3.2591    0.0020 C   0  0  0  0  0
    5.0060   -2.4400    0.0011 N   0  0  0  0  0
    4.6217   -1.1800    0.0000 C   0  0  0  0  0
    5.3080    0.1121   -0.0009 N   0  0  0  0  0
    4.5199    1.2492    0.0050 C   0  0  0  0  0
    3.1333    1.1436   -0.0010 N   0  0  0  0  0
  1  2  1  0  0  0
  2 10  2  0  0  0
  2  3  1  0  0  0
  3  4  1  0  0  0
  3  7  2  0  0  0
  4  5  1  0  0  0
  5  6  2  0  0  0
  6  7  1  0  0  0
  7  8  1  0  0  0
  8  9  2  0  0  0
  9 10  1  0  0  0
M  END
> <SMILES>
NC1C2NC=NC=2N=CN=1

> <NAME>
ADENINE

> <BioCyc_link>


> <BioCyc_name_HTML>


> <CAS>
73-24-5

> <KEGG_ID>


> <toxTree.tree.cramer.CramerTreeResult>
1Y

> <FORMULA>
C5H5N5

> <toxTree.tree.cramer.CramerRules>
Low (Class I)

$$$$
ADENOSINE
 OpenBabel30120812293D

 23 25  0  0  0  0  0  0  0  0999 V2000
    8.1873    4.3414   -5.9738 N   0  0  0  0  0
    7.8024    4.6959   -4.5680 C   0  0  0  0  0
    7.6548    6.0135   -4.1727 N   0  0  0  0  0
    7.2850    6.3186   -2.8673 C   0  0  0  0  0
    7.0708    5.4115   -1.9508 N   0  0  0  0  0
    7.1878    4.0973   -2.2069 C   0  0  0  0  0
    7.5677    3.6624   -3.5595 C   0  0  0  0  0
    7.6119    2.3459   -3.5455 N   0  0  0  0  0
    7.2818    1.8962   -2.2607 C   0  0  0  0  0
    7.0287    2.9453   -1.4621 N   0  0  0  0  0
    6.6357    2.8781   -0.0160 C   0  0  0  0  0
    5.1956    2.4585   -0.0100 H   0  0  0  0  0
    6.8785    4.2438    0.6721 O   0  0  0  0  0
    8.3741    4.1587    1.0774 C   0  0  0  0  0
    8.7283    5.1310    2.1632 H   0  0  0  0  0
    9.2694    4.5005   -0.0766 C   0  0  0  0  0
   10.7024    4.4064    0.3565 O   0  0  0  0  0
    8.5649    2.6917    1.5166 C   0  0  0  0  0
    8.4708    2.5610    3.0079 H   0  0  0  0  0
    9.9226    2.1905    1.1223 O   0  0  0  0  0
    7.4594    1.8779    0.8212 C   0  0  0  0  0
    6.5935    1.1796    1.8276 H   0  0  0  0  0
    8.0526    0.8136   -0.0536 O   0  0  0  0  0
  1  2  1  0  0  0
  2  3  2  0  0  0
  2  7  1  0  0  0
  3  4  1  0  0  0
  4  5  2  0  0  0
  5  6  1  0  0  0
  6 10  1  0  0  0
  6  7  2  0  0  0
  7  8  1  0  0  0
  8  9  2  0  0  0
  9 10  1  0  0  0
 11 10  1  0  0  0
 11 21  1  0  0  0
 11 13  1  0  0  0
 11 12  1  0  0  0
 13 14  1  0  0  0
 14 18  1  0  0  0
 14 16  1  0  0  0
 14 15  1  0  0  0
 16 17  1  0  0  0
 18 21  1  0  0  0
 18 20  1  0  0  0
 18 19  1  0  0  0
 21 23  1  0  0  0
 21 22  1  0  0  0
M  END
> <SMILES>
NC1=NC=NC2=C1N=CN2[C@@H]3O[C@H](CO)[C@@H](O)[C@H]3O

> <NAME>
ADENOSINE

> <BioCyc_link>


> <BioCyc_name_HTML>


> <CAS>
58-61-7

> <KEGG_ID>


> <toxTree.tree.cramer.CramerTreeResult>
1Y

> <FORMULA>
C10H13N5O4

> <toxTree.tree.cramer.CramerRules>
Low (Class I)

$$$$
ALANINE
 OpenBabel30120812293D

  7  6  0  0  0  0  0  0  0  0999 V2000
    2.9931   -0.6977    1.2329 C   0  0  0  0  0
    2.5000    0.0000    0.0000 C   0  0  0  0  0
    1.0000    0.0000    0.0000 H   0  0  0  0  0
    3.0193   -0.7348   -1.2002 N   0  0  0  0  0
    3.0007    1.4140    0.0000 C   0  0  0  0  0
    2.0265    2.5546    0.0000 O   0  0  0  0  0
    4.4756    1.6873    0.0000 O   0  0  0  0  0
  2  1  1  0  0  0
  2  5  1  0  0  0
  2  4  1  0  0  0
  2  3  1  0  0  0
  5  7  2  0  0  0
  5  6  1  0  0  0
M  END
> <SMILES>
C[C@H](N)C(O)=O

> <NAME>
ALANINE

> <BioCyc_link>


> <BioCyc_name_HTML>


> <CAS>
56-41-7

> <KEGG_ID>


> <toxTree.tree.cramer.CramerTreeResult>
1Y

> <FORMULA>
C3H7NO2

> <toxTree.tree.cramer.CramerRules>
Low (Class I)

$$$$
L-ARGININE
 OpenBabel30120812293D

 13 12  0  0  0  0  0  0  0  0999 V2000
    1.0000    0.0000    0.0000 N   0  0  0  0  0
    2.5000    0.0000    0.0000 C   0  0  0  0  0
    2.9931   -0.6977    1.2329 H   0  0  0  0  0
    3.0193   -0.7348   -1.2002 C   0  0  0  0  0
    2.5089   -2.1452   -1.1833 C   0  0  0  0  0
    3.0282   -2.8800   -2.3834 C   0  0  0  0  0
    2.5178   -4.2904   -2.3666 N   0  0  0  0  0
    2.8962   -5.2382   -3.4659 C   0  0  0  0  0
    3.7851   -4.7755   -4.5821 N   0  0  0  0  0
    2.3858   -6.6485   -3.4490 N   0  0  0  0  0
    3.0007    1.4140    0.0000 C   0  0  0  0  0
    2.0265    2.5546    0.0000 O   0  0  0  0  0
    4.4756    1.6873    0.0000 O   0  0  0  0  0
  1  2  1  0  0  0
  2 11  1  0  0  0
  2  4  1  0  0  0
  2  3  1  0  0  0
  4  5  1  0  0  0
  5  6  1  0  0  0
  6  7  1  0  0  0
  7  8  1  0  0  0
  8 10  2  0  0  0
  8  9  1  0  0  0
 11 13  2  0  0  0
 11 12  1  0  0  0
M  END
> <SMILES>
N[C@@H](CCCNC(N)=N)C(O)=O

> <NAME>
L-ARGININE

> <BioCyc_link>


> <BioCyc_name_HTML>


> <CAS>
74-79-3

> <KEGG_ID>


> <toxTree.tree.cramer.CramerTreeResult>
1Y

> <FORMULA>
C6H14N4O2

> <toxTree.tree.cramer.CramerRules>
Low (Class I)

$$$$
ASCORBIC ACID
 OpenBabel30120812293D

 14 14  0  0  0  0  0  0  0  0999 V2000
    4.7506    0.2678   -3.1873 O   0  0  0  0  0
    4.2083    1.4132   -2.3848 C   0  0  0  0  0
    5.0004    2.0328   -1.2718 C   0  0  0  0  0
    4.6820    3.4966   -1.1954 H   0  0  0  0  0
    6.4589    1.8329   -1.5597 O   0  0  0  0  0
    4.5007    1.4140    0.0000 C   0  0  0  0  0
    3.0007    1.4140    0.0000 H   0  0  0  0  0
    4.9617    0.1448    0.0585 O   0  0  0  0  0
    5.8311    0.0937    1.3001 C   0  0  0  0  0
    6.5978   -1.0741    1.8464 O   0  0  0  0  0
    5.7436    1.4991    1.8592 C   0  0  0  0  0
    6.4187    2.0114    3.0969 O   0  0  0  0  0
    4.9755    2.1732    1.0656 C   0  0  0  0  0
    4.6331    3.6190    1.2720 O   0  0  0  0  0
  1  2  1  0  0  0
  3  2  1  0  0  0
  3  5  1  0  0  0
  3  4  1  0  0  0
  6  3  1  0  0  0
  6  8  1  0  0  0
  6 13  1  0  0  0
  6  7  1  0  0  0
  8  9  1  0  0  0
  9 11  1  0  0  0
  9 10  2  0  0  0
 11 13  2  0  0  0
 11 12  1  0  0  0
 13 14  1  0  0  0
M  END
> <SMILES>
OC[C@H](O)[C@H]1OC(=O)C(O)=C1O

> <NAME>
ASCORBIC ACID

> <BioCyc_link>


> <BioCyc_name_HTML>


> <CAS>
50-81-7

> <KEGG_ID>


> <toxTree.tree.cramer.CramerTreeResult>
1N,2N,3N,5N,6N,7Y,8N,10N,11N,12N,22Y

> <FORMULA>
C6H8O6

> <toxTree.tree.cramer.CramerRules>
Intermediate (Class II)

$$$$
ASPARAGINE
 OpenBabel30120812293D

 10  9  0  0  0  0  0  0  0  0999 V2000
    1.0000    0.0000    0.0000 N   0  0  0  0  0
    2.5000    0.0000    0.0000 C   0  0  0  0  0
    2.9931   -0.6977    1.2329 H   0  0  0  0  0
    3.0193   -0.7348   -1.2002 C   0  0  0  0  0
    2.5089   -2.1452   -1.1833 C   0  0  0  0  0
    1.6201   -2.6078   -0.0671 N   0  0  0  0  0
    2.8873   -3.0930   -2.2826 O   0  0  0  0  0
    3.0007    1.4140    0.0000 C   0  0  0  0  0
    2.0265    2.5546    0.0000 O   0  0  0  0  0
    4.4756    1.6873    0.0000 O   0  0  0  0  0
  1  2  1  0  0  0
  2  8  1  0  0  0
  2  4  1  0  0  0
  2  3  1  0  0  0
  4  5  1  0  0  0
  5  7  2  0  0  0
  5  6  1  0  0  0
  8 10  2  0  0  0
  8  9  1  0  0  0
M  END
> <SMILES>
N[C@@H](CC(N)=O)C(O)=O

> <NAME>
ASPARAGINE

> <BioCyc_link>


> <BioCyc_name_HTML>


> <CAS>
70-47-3

> <KEGG_ID>


> <toxTree.tree.cramer.CramerTreeResult>
1Y

> <FORMULA>
C4H8N2O3

> <toxTree.tree.cramer.CramerRules>
Low (Class I)

$$$$
L-ASPARTIC ACID
 OpenBabel30120812293D

 10  9  0  0  0  0  0  0  0  0999 V2000
    1.0000    0.0000    0.0000 N   0  0  0  0  0
    2.5000    0.0000    0.0000 C   0  0  0  0  0
    2.9931   -0.6977    1.2329 H   0  0  0  0  0
    3.0193   -0.7348   -1.2002 C   0  0  0  0  0
    2.5089   -2.1452   -1.1833 C   0  0  0  0  0
    1.6201   -2.6078   -0.0671 O   0  0  0  0  0
    2.8873   -3.0930   -2.2826 O   0  0  0  0  0
    3.0007    1.4140    0.0000 C   0  0  0  0  0
    2.0265    2.5546    0.0000 O   0  0  0  0  0
    4.4756    1.6873    0.0000 O   0  0  0  0  0
  1  2  1  0  0  0
  2  8  1  0  0  0
  2  4  1  0  0  0
  2  3  1  0  0  0
  4  5  1  0  0  0
  5  7  2  0  0  0
  5  6  1  0  0  0
  8 10  2  0  0  0
  8  9  1  0  0  0
M  END
> <SMILES>
N[C@@H](CC(O)=O)C(O)=O

> <NAME>
L-ASPARTIC ACID

> <BioCyc_link>


> <BioCyc_name_HTML>


> <CAS>
56-84-8

> <KEGG_ID>


> <toxTree.tree.cramer.CramerTreeResult>
1Y

> <FORMULA>
C4H7NO4

> <toxTree.tree.cramer.CramerRules>
Low (Class I)

$$$$
CHOLESTEROL
 OpenBabel30120812293D

 34 37  0  0  0  0  0  0  0  0999 V2000
    3.3619    1.4466    3.0093 H   0  0  0  0  0
    2.2666    0.6707    2.3398 C   0  0  0  0  0
    0.7100   -0.3445    3.9683 C   0  0  0  0  0
    2.0457   -0.5649    3.2366 C   0  0  0  0  0
   -0.0036    1.8232    2.4908 C   0  0  0  0  0
   -1.0585    2.8728    2.6791 H   0  0  0  0  0
    0.6778    2.1329    1.1580 C   0  0  0  0  0
   -0.1948    2.7407    0.1001 C   0  0  0  0  0
    2.1947    2.0789    1.3042 C   0  0  0  0  0
    2.6087    0.6759    1.7409 C   0  0  0  0  0
    2.0026    0.3374    3.1051 C   0  0  0  0  0
    2.5988    1.2356    4.1480 H   0  0  0  0  0
    2.2799   -1.1549    3.3763 C   0  0  0  0  0
    3.3382   -2.0442    2.7940 C   0  0  0  0  0
    0.1504    0.5612    4.0163 C   0  0  0  0  0
    2.2271    0.2961    2.0306 C   0  0  0  0  0
    2.3580   -0.4123    3.3810 C   0  0  0  0  0
    3.0665    0.4877    4.3495 H   0  0  0  0  0
    3.1633   -1.6693    3.2338 O   0  0  0  0  0
    0.9597   -0.7360    3.9162 C   0  0  0  0  0
    1.4535   -1.6459    4.5266 C   0  0  0  0  0
    0.4309   -1.0254    5.0177 C   0  0  0  0  0
   -0.0729    0.2901    4.4890 C   0  0  0  0  0
    0.4890    0.5174    3.0831 C   0  0  0  0  0
   -0.0366   -0.5209    2.1367 H   0  0  0  0  0
    2.8361   -0.3645    1.4157 C   0  0  0  0  0
    2.5000    0.0000    0.0000 H   0  0  0  0  0
    2.2363   -1.6939    1.7660 C   0  0  0  0  0
    4.3263   -0.4071    1.5815 C   0  0  0  0  0
    4.6623   -0.7716    2.9972 C   0  0  0  0  0
    6.1525   -0.8143    3.1630 C   0  0  0  0  0
    6.4886   -1.1788    4.5787 C   0  0  0  0  0
    5.8888   -2.5082    4.9291 C   0  0  0  0  0
    7.9788   -1.2214    4.7445 C   0  0  0  0  0
  1  2  1  0  0  0
  2  7  1  0  0  0
  2  3  1  0  0  0
 26  2  1  0  0  0
  3  4  1  0  0  0
  4  5  1  0  0  0
  5  7  1  0  0  0
  5 24  1  0  0  0
  5  6  1  0  0  0
  7  9  1  0  0  0
  7  8  1  0  0  0
  9 10  1  0  0  0
 10 11  1  0  0  0
 11 24  1  0  0  0
 11 13  1  0  0  0
 11 12  1  0  0  0
 13 21  1  0  0  0
 13 15  1  0  0  0
 13 14  1  0  0  0
 15 16  1  0  0  0
 16 17  1  0  0  0
 17 20  1  0  0  0
 17 19  1  0  0  0
 17 18  1  0  0  0
 20 21  1  0  0  0
 21 22  2  0  0  0
 22 23  1  0  0  0
 23 24  1  0  0  0
 24 25  1  0  0  0
 26 29  1  0  0  0
 26 28  1  0  0  0
 26 27  1  0  0  0
 29 30  1  0  0  0
 30 31  1  0  0  0
 31 32  1  0  0  0
 32 34  1  0  0  0
 32 33  1  0  0  0
M  END
> <SMILES>
[H][C@@]1(CC[C@]2([H])[C@]1(C)CC[C@]3([H])[C@@]4(C)CC[C@H](O)CC4=CC[C@@]23[H])[C@H](C)CCCC(C)C

> <NAME>
CHOLESTEROL

> <BioCyc_link>


> <BioCyc_name_HTML>


> <CAS>
57-88-5

> <KEGG_ID>


> <toxTree.tree.cramer.CramerTreeResult>
1Y

> <FORMULA>
C27H46O

> <toxTree.tree.cramer.CramerRules>
Low (Class I)

$$$$
CYSTEINE
 OpenBabel30120812293D

  8  7  0  0  0  0  0  0  0  0999 V2000
    1.0000    0.0000    0.0000 N   0  0  0  0  0
    2.5000    0.0000    0.0000 C   0  0  0  0  0
    2.9931   -0.6977    1.2329 H   0  0  0  0  0
    3.0193   -0.7348   -1.2002 C   0  0  0  0  0
    2.5089   -2.1452   -1.1833 S   0  0  0  0  0
    3.0007    1.4140    0.0000 C   0  0  0  0  0
    2.0265    2.5546    0.0000 O   0  0  0  0  0
    4.4756    1.6873    0.0000 O   0  0  0  0  0
  1  2  1  0  0  0
  2  6  1  0  0  0
  2  4  1  0  0  0
  2  3  1  0  0  0
  4  5  1  0  0  0
  6  8  2  0  0  0
  6  7  1  0  0  0
M  END
> <SMILES>
N[C@@H](CS)C(O)=O

> <NAME>
CYSTEINE

> <BioCyc_link>


> <BioCyc_name_HTML>


> <CAS>
52-90-4

> <KEGG_ID>


> <toxTree.tree.cramer.CramerTreeResult>
1Y

> <FORMULA>
C3H7NO2S

> <toxTree.tree.cramer.CramerRules>
Low (Class I)

$$$$
CYTIDINE
 OpenBabel30120812293D

 21 22  0  0  0  0  0  0  0  0999 V2000
    8.3913    0.0511   -5.5123 N   0  0  0  0  0
    7.9634    0.0534   -4.0746 C   0  0  0  0  0
    7.7625    1.2497   -3.4186 N   0  0  0  0  0
    7.3759    1.2511   -2.0768 C   0  0  0  0  0
    7.1618    2.5487   -1.3555 O   0  0  0  0  0
    7.1896    0.0390   -1.4102 N   0  0  0  0  0
    7.3882   -1.1502   -2.0795 C   0  0  0  0  0
    7.7714   -1.1448   -3.4096 C   0  0  0  0  0
    6.7743    0.0301    0.0312 C   0  0  0  0  0
    5.2744    0.0187    0.0181 H   0  0  0  0  0
    7.3192    1.2538    0.8079 O   0  0  0  0  0
    8.7498    0.7976    1.1999 C   0  0  0  0  0
    9.3075    1.5875    2.3467 H   0  0  0  0  0
    9.7127    0.9980    0.0673 C   0  0  0  0  0
   11.0801    0.5457    0.4866 O   0  0  0  0  0
    8.5907   -0.6993    1.5392 C   0  0  0  0  0
    8.4523   -0.9028    3.0189 H   0  0  0  0  0
    9.7997   -1.4745    1.1062 O   0  0  0  0  0
    7.3345   -1.1869    0.7960 C   0  0  0  0  0
    6.3194   -1.7302    1.7574 H   0  0  0  0  0
    7.6748   -2.2996   -0.1506 O   0  0  0  0  0
  1  2  1  0  0  0
  2  8  1  0  0  0
  2  3  2  0  0  0
  3  4  1  0  0  0
  4  6  1  0  0  0
  4  5  2  0  0  0
  6  7  1  0  0  0
  9  6  1  0  0  0
  7  8  2  0  0  0
  9 19  1  0  0  0
  9 11  1  0  0  0
  9 10  1  0  0  0
 11 12  1  0  0  0
 12 16  1  0  0  0
 12 14  1  0  0  0
 12 13  1  0  0  0
 14 15  1  0  0  0
 16 19  1  0  0  0
 16 18  1  0  0  0
 16 17  1  0  0  0
 19 21  1  0  0  0
 19 20  1  0  0  0
M  END
> <SMILES>
NC1=NC(=O)N(C=C1)[C@@H]2O[C@H](CO)[C@@H](O)[C@H]2O

> <NAME>
CYTIDINE

> <BioCyc_link>


> <BioCyc_name_HTML>


> <CAS>
65-46-3

> <KEGG_ID>


> <toxTree.tree.cramer.CramerTreeResult>
1Y

> <FORMULA>
C9H13N3O5

> <toxTree.tree.cramer.CramerRules>
Low (Class I)

$$$$
CYTOSINE
 OpenBabel30120812293D

  8  8  0  0  0  0  0  0  0  0999 V2000
    1.0000    0.0000    0.0000 N   0  0  0  0  0
    2.5000    0.0000    0.0000 C   0  0  0  0  0
    3.1879   -1.1952   -0.0000 N   0  0  0  0  0
    4.5842   -1.1944    0.0121 C   0  0  0  0  0
    5.3386   -2.4909    0.0187 O   0  0  0  0  0
    5.2744    0.0187    0.0181 N   0  0  0  0  0
    4.5744    1.2069    0.0121 C   0  0  0  0  0
    3.1903    1.1993    0.0000 C   0  0  0  0  0
  1  2  1  0  0  0
  2  8  1  0  0  0
  2  3  2  0  0  0
  3  4  1  0  0  0
  4  6  1  0  0  0
  4  5  2  0  0  0
  6  7  1  0  0  0
  7  8  2  0  0  0
M  END
> <SMILES>
NC1=NC(=O)NC=C1

> <NAME>
CYTOSINE

> <BioCyc_link>


> <BioCyc_name_HTML>


> <CAS>
71-30-7

> <KEGG_ID>


> <toxTree.tree.cramer.CramerTreeResult>
1Y

> <FORMULA>
C4H5N3O

> <toxTree.tree.cramer.CramerRules>
Low (Class I)

$$$$
D-GLUCOSE
 OpenBabel30120812293D

 16 16  0  0  0  0  0  0  0  0999 V2000
    1.9876    2.2423    2.5352 O   0  0  0  0  0
    2.0856    1.6323    1.1683 C   0  0  0  0  0
    3.0007    1.4140    0.0000 C   0  0  0  0  0
    2.5000    0.0000    0.0000 H   0  0  0  0  0
    3.5272    1.5293   -1.4324 O   0  0  0  0  0
    3.0740    2.7561   -2.0087 C   0  0  0  0  0
    3.5046    2.8229   -3.4440 O   0  0  0  0  0
    3.5254    3.9247   -1.3217 C   0  0  0  0  0
    3.0029    5.1430   -2.0236 H   0  0  0  0  0
    5.0242    3.9830   -1.3250 O   0  0  0  0  0
    2.9987    3.9063    0.1153 C   0  0  0  0  0
    1.4991    3.9350    0.0970 H   0  0  0  0  0
    3.4818    5.1138    0.8626 O   0  0  0  0  0
    3.4750    2.6260    0.8086 C   0  0  0  0  0
    2.8978    2.5616    2.1916 H   0  0  0  0  0
    4.9704    2.6218    0.9257 O   0  0  0  0  0
  1  2  1  0  0  0
  3  2  1  0  0  0
  3 14  1  0  0  0
  3  5  1  0  0  0
  3  4  1  0  0  0
  5  6  1  0  0  0
  6  8  1  0  0  0
  6  7  1  0  0  0
  8 11  1  0  0  0
  8 10  1  0  0  0
  8  9  1  0  0  0
 11 14  1  0  0  0
 11 13  1  0  0  0
 11 12  1  0  0  0
 14 16  1  0  0  0
 14 15  1  0  0  0
M  END
> <SMILES>
OC[C@H]1OC(O)[C@H](O)[C@@H](O)[C@@H]1O

> <NAME>
D-GLUCOSE

> <BioCyc_link>


> <BioCyc_name_HTML>


> <CAS>
50-99-7

> <KEGG_ID>


> <toxTree.tree.cramer.CramerTreeResult>
1Y

> <FORMULA>
C6H12O6

> <toxTree.tree.cramer.CramerRules>
Low (Class I)

$$$$
GLUCURONIC ACID
 OpenBabel30120812293D

 17 16  0  0  0  0  0  0  0  0999 V2000
    5.4274    6.8396   -2.1549 O   0  0  0  0  0
    5.2260    5.3536   -2.1891 C   0  0  0  0  0
    4.8849    4.6725   -3.4812 O   0  0  0  0  0
    5.3658    4.5487   -0.9310 C   0  0  0  0  0
    6.7577    4.7089   -0.3953 H   0  0  0  0  0
    4.3992    5.0361    0.1073 O   0  0  0  0  0
    5.1172    3.1006   -1.2329 C   0  0  0  0  0
    3.7253    2.9405   -1.7687 H   0  0  0  0  0
    6.0838    2.6132   -2.2713 O   0  0  0  0  0
    5.4749    2.3247    0.0000 C   0  0  0  0  0
    4.7249    1.0257    0.0000 H   0  0  0  0  0
    5.0982    3.1419    1.2002 O   0  0  0  0  0
    6.9498    2.0514    0.0000 C   0  0  0  0  0
    7.3074    1.2755    1.2329 H   0  0  0  0  0
    7.3265    1.2342   -1.2002 O   0  0  0  0  0
    7.6998    3.3504    0.0000 C   0  0  0  0  0
    9.1998    3.3504    0.0000 O   0  0  0  0  0
  1  2  1  0  0  0
  2  4  1  0  0  0
  2  3  2  0  0  0
  4  7  1  0  0  0
  4  6  1  0  0  0
  4  5  1  0  0  0
  7  9  1  0  0  0
  7  8  1  0  0  0
 10  7  1  0  0  0
 10 13  1  0  0  0
 10 12  1  0  0  0
 10 11  1  0  0  0
 13 16  1  0  0  0
 13 15  1  0  0  0
 13 14  1  0  0  0
 16 17  2  0  0  0
M  END
> <SMILES>
OC(=O)[C@@H](O)[C@@H](O)[C@H](O)[C@@H](O)C=O

> <NAME>
GLUCURONIC ACID

> <BioCyc_link>


> <BioCyc_name_HTML>


> <CAS>
576-37-4

> <KEGG_ID>


> <toxTree.tree.cramer.CramerTreeResult>
1Y

> <FORMULA>
C6H10O7

> <toxTree.tree.cramer.CramerRules>
Low (Class I)

$$$$
L-GLUTAMIC ACID
 OpenBabel30120812293D

 10  9  0  0  0  0  0  0  0  0999 V2000
    1.0000    0.0000    0.0000 N   0  0  0  0  0
    2.5000    0.0000    0.0000 C   0  0  0  0  0
    3.0193   -0.7348   -1.2002 C   0  0  0  0  0
    2.5089   -2.1452   -1.1833 C   0  0  0  0  0
    3.0282   -2.8800   -2.3834 C   0  0  0  0  0
    3.9161   -2.1770   -3.3671 O   0  0  0  0  0
    2.6597   -4.3178   -2.6000 O   0  0  0  0  0
    3.0007    1.4140    0.0000 C   0  0  0  0  0
    2.0265    2.5546    0.0000 O   0  0  0  0  0
    4.4756    1.6873    0.0000 O   0  0  0  0  0
  1  2  1  0  0  0
  2  8  1  0  0  0
  2  3  1  0  0  0
  3  4  1  0  0  0
  4  5  1  0  0  0
  5  7  2  0  0  0
  5  6  1  0  0  0
  8 10  2  0  0  0
  8  9  1  0  0  0
M  END
> <SMILES>
NC(CCC(O)=O)C(O)=O

> <NAME>
L-GLUTAMIC ACID

> <BioCyc_link>


> <BioCyc_name_HTML>


> <CAS>
56-86-0

> <KEGG_ID>


> <toxTree.tree.cramer.CramerTreeResult>
1Y

> <FORMULA>
C5H9NO4

> <toxTree.tree.cramer.CramerRules>
Low (Class I)

$$$$
GLUTAMINE
 OpenBabel30120812293D

 11 10  0  0  0  0  0  0  0  0999 V2000
    1.0000    0.0000    0.0000 N   0  0  0  0  0
    2.5000    0.0000    0.0000 C   0  0  0  0  0
    2.9931   -0.6977    1.2329 H   0  0  0  0  0
    3.0193   -0.7348   -1.2002 C   0  0  0  0  0
    2.5089   -2.1452   -1.1833 C   0  0  0  0  0
    3.0282   -2.8800   -2.3834 C   0  0  0  0  0
    3.9161   -2.1770   -3.3671 N   0  0  0  0  0
    2.6597   -4.3178   -2.6000 O   0  0  0  0  0
    3.0007    1.4140    0.0000 C   0  0  0  0  0
    2.0265    2.5546    0.0000 O   0  0  0  0  0
    4.4756    1.6873    0.0000 O   0  0  0  0  0
  1  2  1  0  0  0
  2  9  1  0  0  0
  2  4  1  0  0  0
  2  3  1  0  0  0
  4  5  1  0  0  0
  5  6  1  0  0  0
  6  8  2  0  0  0
  6  7  1  0  0  0
  9 11  2  0  0  0
  9 10  1  0  0  0
M  END
> <SMILES>
N[C@@H](CCC(N)=O)C(O)=O

> <NAME>
GLUTAMINE

> <BioCyc_link>


> <BioCyc_name_HTML>


> <CAS>
56-85-9

> <KEGG_ID>


> <toxTree.tree.cramer.CramerTreeResult>
1Y

> <FORMULA>
C5H10N2O3

> <toxTree.tree.cramer.CramerRules>
Low (Class I)

$$$$
GLYCINE
 OpenBabel30120812293D

  5  4  0  0  0  0  0  0  0  0999 V2000
    1.0000    0.0000    0.0000 N   0  0  0  0  0
    2.5000    0.0000    0.0000 C   0  0  0  0  0
    3.0007    1.4140    0.0000 C   0  0  0  0  0
    2.0265    2.5546    0.0000 O   0  0  0  0  0
    4.4756    1.6873    0.0000 O   0  0  0  0  0
  1  2  1  0  0  0
  2  3  1  0  0  0
  3  5  2  0  0  0
  3  4  1  0  0  0
M  END
> <SMILES>
NCC(O)=O

> <NAME>
GLYCINE

> <BioCyc_link>


> <BioCyc_name_HTML>


> <CAS>
56-40-6

> <KEGG_ID>


> <toxTree.tree.cramer.CramerTreeResult>
1Y

> <FORMULA>
C2H5NO2

> <toxTree.tree.cramer.CramerRules>
Low (Class I)

$$$$
GUANINE
 OpenBabel30120812293D

 11 12  0  0  0  0  0  0  0  0999 V2000
    1.0000    0.0000    0.0000 N   0  0  0  0  0
    2.5000    0.0000    0.0000 C   0  0  0  0  0
    3.1879    1.2004   -0.0000 N   0  0  0  0  0
    4.6494    1.1362    0.0137 C   0  0  0  0  0
    5.2778   -0.1934    0.0202 C   0  0  0  0  0
    6.6414    0.0247    0.0330 N   0  0  0  0  0
    6.8498    1.3510    0.0348 C   0  0  0  0  0
    5.6219    2.0248    0.0232 N   0  0  0  0  0
    4.4961   -1.2868    0.0124 C   0  0  0  0  0
    5.1409   -2.6411    0.0180 O   0  0  0  0  0
    3.1915   -1.2066    0.0000 N   0  0  0  0  0
  1  2  1  0  0  0
  2 11  1  0  0  0
  2  3  2  0  0  0
  3  4  1  0  0  0
  4  5  2  0  0  0
  4  8  1  0  0  0
  5  9  1  0  0  0
  5  6  1  0  0  0
  6  7  1  0  0  0
  7  8  2  0  0  0
  9 11  1  0  0  0
  9 10  2  0  0  0
M  END
> <SMILES>
NC1=NC2=C(NC=N2)C(=O)N1

> <NAME>
GUANINE

> <BioCyc_link>


> <BioCyc_name_HTML>


> <CAS>
73-40-5

> <KEGG_ID>


> <toxTree.tree.cramer.CramerTreeResult>
1Y

> <FORMULA>
C5H5N5O

> <toxTree.tree.cramer.CramerRules>
Low (Class I)

$$$$
GUANOSINE
 OpenBabel30120812293D

 24 26  0  0  0  0  0  0  0  0999 V2000
    1.5547    7.5211   -0.9609 N   0  0  0  0  0
    1.7304    6.0316   -0.9393 C   0  0  0  0  0
    2.9625    5.4888   -0.6210 N   0  0  0  0  0
    3.0686    4.0297   -0.6033 C   0  0  0  0  0
    1.8650    3.2502   -0.9297 C   0  0  0  0  0
    2.2307    1.9214   -0.8416 N   0  0  0  0  0
    3.5270    1.8695   -0.4960 C   0  0  0  0  0
    4.0325    3.1678   -0.3518 N   0  0  0  0  0
    5.4434    3.5141    0.0217 C   0  0  0  0  0
    5.6219    2.0248    0.0232 H   0  0  0  0  0
    5.6336    4.2939    1.3459 O   0  0  0  0  0
    5.2569    5.7445    0.9429 C   0  0  0  0  0
    5.8077    6.7637    1.8957 H   0  0  0  0  0
    3.7702    5.9428    0.9566 C   0  0  0  0  0
    3.4497    7.3542    0.5623 O   0  0  0  0  0
    5.8281    5.9024   -0.4819 C   0  0  0  0  0
    7.1637    6.5847   -0.4525 H   0  0  0  0  0
    4.9255    6.7527   -1.3258 O   0  0  0  0  0
    5.9466    4.4842   -1.0672 C   0  0  0  0  0
    7.3651    4.1767   -1.4458 H   0  0  0  0  0
    5.1262    4.3538   -2.3162 O   0  0  0  0  0
    0.7266    3.8988   -1.2294 C   0  0  0  0  0
   -0.4986    3.1001   -1.5628 O   0  0  0  0  0
    0.6539    5.2039   -1.2395 N   0  0  0  0  0
  1  2  1  0  0  0
  2 24  1  0  0  0
  2  3  2  0  0  0
  3  4  1  0  0  0
  4  5  2  0  0  0
  4  8  1  0  0  0
  5 22  1  0  0  0
  5  6  1  0  0  0
  6  7  2  0  0  0
  7  8  1  0  0  0
  9  8  1  0  0  0
  9 19  1  0  0  0
  9 11  1  0  0  0
  9 10  1  0  0  0
 11 12  1  0  0  0
 12 16  1  0  0  0
 12 14  1  0  0  0
 12 13  1  0  0  0
 14 15  1  0  0  0
 16 19  1  0  0  0
 16 18  1  0  0  0
 16 17  1  0  0  0
 19 21  1  0  0  0
 19 20  1  0  0  0
 22 24  1  0  0  0
 22 23  2  0  0  0
M  END
> <SMILES>
NC1=NC2=C(N=CN2[C@@H]3O[C@H](CO)[C@@H](O)[C@H]3O)C(=O)N1

> <NAME>
GUANOSINE

> <BioCyc_link>


> <BioCyc_name_HTML>


> <CAS>
118-00-3

> <KEGG_ID>


> <toxTree.tree.cramer.CramerTreeResult>
1Y

> <FORMULA>
C10H13N5O5

> <toxTree.tree.cramer.CramerRules>
Low (Class I)

$$$$
HISTIDINE
 OpenBabel30120812293D

 12 12  0  0  0  0  0  0  0  0999 V2000
    1.0000    0.0000    0.0000 N   0  0  0  0  0
    2.5000    0.0000    0.0000 C   0  0  0  0  0
    2.9931   -0.6977    1.2329 H   0  0  0  0  0
    3.0193   -0.7348   -1.2002 C   0  0  0  0  0
    2.5089   -2.1452   -1.1833 C   0  0  0  0  0
    3.2613   -3.2715   -1.2272 C   0  0  0  0  0
    2.3869   -4.3058   -1.1790 N   0  0  0  0  0
    1.1862   -3.7981   -1.1168 C   0  0  0  0  0
    1.2585   -2.5142   -1.1236 N   0  0  0  0  0
    3.0007    1.4140    0.0000 C   0  0  0  0  0
    2.0265    2.5546    0.0000 O   0  0  0  0  0
    4.4756    1.6873    0.0000 O   0  0  0  0  0
  1  2  1  0  0  0
  2 10  1  0  0  0
  2  4  1  0  0  0
  2  3  1  0  0  0
  4  5  1  0  0  0
  5  6  2  0  0  0
  5  9  1  0  0  0
  6  7  1  0  0  0
  7  8  1  0  0  0
  8  9  2  0  0  0
 10 12  2  0  0  0
 10 11  1  0  0  0
M  END
> <SMILES>
N[C@@H](CC1=CNC=N1)C(O)=O

> <NAME>
HISTIDINE

> <BioCyc_link>


> <BioCyc_name_HTML>


> <CAS>
71-00-1

> <KEGG_ID>


> <toxTree.tree.cramer.CramerTreeResult>
1Y

> <FORMULA>
C6H9N3O2

> <toxTree.tree.cramer.CramerRules>
Low (Class I)

$$$$
ISOLEUCINE
 OpenBabel30120812293D

 11 10  0  0  0  0  0  0  0  0999 V2000
    5.7213   -1.7360    0.6820 C   0  0  0  0  0
    6.0623   -0.3111    1.0033 C   0  0  0  0  0
    4.9938    0.7163    1.2329 C   0  0  0  0  0
    5.4775    1.7135    2.2437 H   0  0  0  0  0
    3.7660    0.0183    1.7384 C   0  0  0  0  0
    4.5007    1.4140    0.0000 C   0  0  0  0  0
    3.0007    1.4140    0.0000 H   0  0  0  0  0
    5.0200    0.6792   -1.2002 N   0  0  0  0  0
    5.0014    2.8279    0.0000 C   0  0  0  0  0
    4.0272    3.9685    0.0000 O   0  0  0  0  0
    6.4763    3.1013    0.0000 O   0  0  0  0  0
  1  2  1  0  0  0
  3  2  1  0  0  0
  3  5  1  0  0  0
  3  4  1  0  0  0
  6  3  1  0  0  0
  6  9  1  0  0  0
  6  8  1  0  0  0
  6  7  1  0  0  0
  9 11  2  0  0  0
  9 10  1  0  0  0
M  END
> <SMILES>
CC[C@H](C)[C@H](N)C(O)=O

> <NAME>
ISOLEUCINE

> <BioCyc_link>


> <BioCyc_name_HTML>


> <CAS>
73-32-5

> <KEGG_ID>


> <toxTree.tree.cramer.CramerTreeResult>
1Y

> <FORMULA>
C6H13NO2

> <toxTree.tree.cramer.CramerRules>
Low (Class I)

$$$$
LEUCINE
 OpenBabel30120812293D

 10  9  0  0  0  0  0  0  0  0999 V2000
    6.4296   -0.6932   -0.1650 C   0  0  0  0  0
    5.3676   -0.6964    0.8944 C   0  0  0  0  0
    5.8574   -1.4116    2.1185 C   0  0  0  0  0
    4.9938    0.7163    1.2329 C   0  0  0  0  0
    4.5007    1.4140    0.0000 C   0  0  0  0  0
    3.0007    1.4140    0.0000 H   0  0  0  0  0
    5.0200    0.6792   -1.2002 N   0  0  0  0  0
    5.0014    2.8279    0.0000 C   0  0  0  0  0
    4.0272    3.9685    0.0000 O   0  0  0  0  0
    6.4763    3.1013    0.0000 O   0  0  0  0  0
  1  2  1  0  0  0
  2  4  1  0  0  0
  2  3  1  0  0  0
  5  4  1  0  0  0
  5  8  1  0  0  0
  5  7  1  0  0  0
  5  6  1  0  0  0
  8 10  2  0  0  0
  8  9  1  0  0  0
M  END
> <SMILES>
CC(C)C[C@H](N)C(O)=O

> <NAME>
LEUCINE

> <BioCyc_link>


> <BioCyc_name_HTML>


> <CAS>
61-90-5

> <KEGG_ID>


> <toxTree.tree.cramer.CramerTreeResult>
1Y

> <FORMULA>
C6H13NO2

> <toxTree.tree.cramer.CramerRules>
Low (Class I)

$$$$
LYSINE
 OpenBabel30120812293D

 11 10  0  0  0  0  0  0  0  0999 V2000
    8.7096    2.6376    5.7947 N   0  0  0  0  0
    8.3882    3.3591    4.5195 C   0  0  0  0  0
    7.8521    2.3839    3.5138 C   0  0  0  0  0
    7.5306    3.1055    2.2387 C   0  0  0  0  0
    6.9945    2.1302    1.2329 C   0  0  0  0  0
    6.5014    2.8279    0.0000 C   0  0  0  0  0
    5.0014    2.8279    0.0000 H   0  0  0  0  0
    7.0207    2.0931   -1.2002 N   0  0  0  0  0
    7.0021    4.2419    0.0000 C   0  0  0  0  0
    6.0280    5.3825    0.0000 O   0  0  0  0  0
    8.4770    4.5152    0.0000 O   0  0  0  0  0
  1  2  1  0  0  0
  2  3  1  0  0  0
  3  4  1  0  0  0
  4  5  1  0  0  0
  6  5  1  0  0  0
  6  9  1  0  0  0
  6  8  1  0  0  0
  6  7  1  0  0  0
  9 11  2  0  0  0
  9 10  1  0  0  0
M  END
> <SMILES>
NCCCC[C@H](N)C(O)=O

> <NAME>
LYSINE

> <BioCyc_link>


> <BioCyc_name_HTML>


> <CAS>
56-87-1

> <KEGG_ID>


> <toxTree.tree.cramer.CramerTreeResult>
1Y

> <FORMULA>
C6H14N2O2

> <toxTree.tree.cramer.CramerRules>
Low (Class I)

$$$$
METHIONINE
 OpenBabel30120812293D

 10  9  0  0  0  0  0  0  0  0999 V2000
    4.8298    7.1612   -2.1992 C   0  0  0  0  0
    4.5083    5.7042   -2.3536 S   0  0  0  0  0
    4.8298    4.9826   -1.0785 C   0  0  0  0  0
    4.5083    3.5256   -1.2329 C   0  0  0  0  0
    5.0014    2.8279    0.0000 C   0  0  0  0  0
    4.5007    1.4140    0.0000 H   0  0  0  0  0
    4.4821    3.5627    1.2002 N   0  0  0  0  0
    6.5014    2.8279    0.0000 C   0  0  0  0  0
    7.2514    1.5289    0.0000 O   0  0  0  0  0
    7.2514    4.1270    0.0000 O   0  0  0  0  0
  1  2  1  0  0  0
  2  3  1  0  0  0
  3  4  1  0  0  0
  5  4  1  0  0  0
  5  8  1  0  0  0
  5  7  1  0  0  0
  5  6  1  0  0  0
  8 10  2  0  0  0
  8  9  1  0  0  0
M  END
> <SMILES>
CSCC[C@H](N)C(O)=O

> <NAME>
METHIONINE

> <BioCyc_link>


> <BioCyc_name_HTML>


> <CAS>
63-68-3

> <KEGG_ID>


> <toxTree.tree.cramer.CramerTreeResult>
1Y

> <FORMULA>
C5H11NO2S

> <toxTree.tree.cramer.CramerRules>
Low (Class I)

$$$$
PHENYLALANINE
 OpenBabel30120812293D

 13 13  0  0  0  0  0  0  0  0999 V2000
    1.0000    0.0000    0.0000 N   0  0  0  0  0
    2.5000    0.0000    0.0000 C   0  0  0  0  0
    2.9931   -0.6977    1.2329 H   0  0  0  0  0
    3.0193   -0.7348   -1.2002 C   0  0  0  0  0
    2.5089   -2.1452   -1.1833 C   0  0  0  0  0
    1.1527   -2.3853   -1.1145 C   0  0  0  0  0
    0.6791   -3.6986   -1.0867 C   0  0  0  0  0
    1.5837   -4.7605   -1.1349 C   0  0  0  0  0
    2.9371   -4.5066   -1.2096 C   0  0  0  0  0
    3.4001   -3.2024   -1.2368 C   0  0  0  0  0
    3.0007    1.4140    0.0000 C   0  0  0  0  0
    2.0265    2.5546    0.0000 O   0  0  0  0  0
    4.4756    1.6873    0.0000 O   0  0  0  0  0
  1  2  1  0  0  0
  2 11  1  0  0  0
  2  4  1  0  0  0
  2  3  1  0  0  0
  4  5  1  0  0  0
  5 10  1  0  0  0
  5  6  2  0  0  0
  6  7  1  0  0  0
  7  8  2  0  0  0
  8  9  1  0  0  0
  9 10  2  0  0  0
 11 13  2  0  0  0
 11 12  1  0  0  0
M  END
> <SMILES>
N[C@@H](CC1=CC=CC=C1)C(O)=O

> <NAME>
PHENYLALANINE

> <BioCyc_link>


> <BioCyc_name_HTML>


> <CAS>
63-91-2

> <KEGG_ID>


> <toxTree.tree.cramer.CramerTreeResult>
1Y

> <FORMULA>
C9H11NO2

> <toxTree.tree.cramer.CramerRules>
Low (Class I)

$$$$
PHOSPHOENOLPYRUVATE
 OpenBabel30120812293D

 10  9  0  0  0  0  0  0  0  0999 V2000
    1.0000    0.0000    0.0000 O   0  0  0  0  0
    2.5000    0.0000    0.0000 C   0  0  0  0  0
    3.2500   -1.2990    0.0000 O   0  0  0  0  0
    3.2500    1.2990    0.0000 C   0  0  0  0  0
    2.5000    2.5981    0.0000 C   0  0  0  0  0
    4.7500    1.2990    0.0000 O   0  0  0  0  0
    5.5000    2.5981    0.0000 P   0  0  0  0  0
    5.1423    3.3739   -1.2329 O   0  0  0  0  0
    5.1233    3.4152    1.2002 O   0  0  0  0  0
    6.9749    2.3247    0.0000 O   0  0  0  0  0
  1  2  1  0  0  0
  2  4  1  0  0  0
  2  3  2  0  0  0
  4  6  1  0  0  0
  4  5  2  0  0  0
  6  7  1  0  0  0
  7 10  2  0  0  0
  7  9  1  0  0  0
  7  8  1  0  0  0
M  CHG  1   9  -1
M  END
> <SMILES>
OC(=O)C(=C)OP(O)([O-])=O

> <NAME>
PHOSPHOENOLPYRUVATE

> <BioCyc_link>


> <BioCyc_name_HTML>


> <CAS>
73-89-2

> <KEGG_ID>


> <toxTree.tree.cramer.CramerTreeResult>
1Y

> <FORMULA>
C3H4O6P

> <toxTree.tree.cramer.CramerRules>
Low (Class I)

$$$$
PROLINE
 OpenBabel30120812293D

  9  9  0  0  0  0  0  0  0  0999 V2000
    1.0000    0.0000    0.0000 H   0  0  0  0  0
    2.5000    0.0000    0.0000 C   0  0  0  0  0
    3.0599    1.1537    0.8679 C   0  0  0  0  0
    4.4904    0.6582    1.2094 C   0  0  0  0  0
    4.3235   -0.8601    1.4286 C   0  0  0  0  0
    3.0578   -1.2782    0.6595 N   0  0  0  0  0
    2.9034    0.1217   -1.4396 C   0  0  0  0  0
    1.8539    0.2119   -2.5075 O   0  0  0  0  0
    4.3563    0.1531   -1.8113 O   0  0  0  0  0
  1  2  1  0  0  0
  2  6  1  0  0  0
  2  3  1  0  0  0
  2  7  1  0  0  0
  3  4  1  0  0  0
  4  5  1  0  0  0
  5  6  1  0  0  0
  7  9  2  0  0  0
  7  8  1  0  0  0
M  END
> <SMILES>
[H][C@@]1(CCCN1)C(O)=O

> <NAME>
PROLINE

> <BioCyc_link>


> <BioCyc_name_HTML>


> <CAS>
147-85-3

> <KEGG_ID>


> <toxTree.tree.cramer.CramerTreeResult>
1Y

> <FORMULA>
C5H9NO2

> <toxTree.tree.cramer.CramerRules>
Low (Class I)

$$$$
SERINE
 OpenBabel30120812293D

  8  7  0  0  0  0  0  0  0  0999 V2000
    1.0000    0.0000    0.0000 N   0  0  0  0  0
    2.5000    0.0000    0.0000 C   0  0  0  0  0
    2.9931   -0.6977    1.2329 H   0  0  0  0  0
    3.0193   -0.7348   -1.2002 C   0  0  0  0  0
    2.5089   -2.1452   -1.1833 O   0  0  0  0  0
    3.0007    1.4140    0.0000 C   0  0  0  0  0
    2.0265    2.5546    0.0000 O   0  0  0  0  0
    4.4756    1.6873    0.0000 O   0  0  0  0  0
  1  2  1  0  0  0
  2  6  1  0  0  0
  2  4  1  0  0  0
  2  3  1  0  0  0
  4  5  1  0  0  0
  6  8  2  0  0  0
  6  7  1  0  0  0
M  END
> <SMILES>
N[C@@H](CO)C(O)=O

> <NAME>
SERINE

> <BioCyc_link>


> <BioCyc_name_HTML>


> <CAS>
56-45-1

> <KEGG_ID>


> <toxTree.tree.cramer.CramerTreeResult>
1Y

> <FORMULA>
C3H7NO3

> <toxTree.tree.cramer.CramerRules>
Low (Class I)

$$$$
RIBOFLAVIN
 OpenBabel30120812293D

 30 32  0  0  0  0  0  0  0  0999 V2000
    1.0000    0.0000    0.0000 C   0  0  0  0  0
    2.5000    0.0000    0.0000 C   0  0  0  0  0
    3.1618   -1.1866   -0.0024 C   0  0  0  0  0
    4.5715   -1.1965   -0.0076 C   0  0  0  0  0
    5.2874    0.0851   -0.0103 C   0  0  0  0  0
    4.5360    1.2793   -0.0085 C   0  0  0  0  0
    3.1795    1.2183    0.0025 C   0  0  0  0  0
    2.3911    2.4943    0.0177 C   0  0  0  0  0
    6.6154    0.1093   -0.0151 N   0  0  0  0  0
    7.3464    1.4191   -0.0190 C   0  0  0  0  0
    6.3558    2.5454   -0.0163 C   0  0  0  0  0
    5.5018    2.4538   -1.2460 H   0  0  0  0  0
    5.4655    2.4511    1.1872 O   0  0  0  0  0
    7.0868    3.8552   -0.0201 C   0  0  0  0  0
    7.9409    3.9468    1.2096 H   0  0  0  0  0
    7.9772    3.9495   -1.2236 O   0  0  0  0  0
    6.0962    4.9816   -0.0175 C   0  0  0  0  0
    5.2422    4.8900   -1.2472 H   0  0  0  0  0
    5.2059    4.8873    1.1861 O   0  0  0  0  0
    6.8272    6.2914   -0.0213 C   0  0  0  0  0
    5.8366    7.4177   -0.0186 O   0  0  0  0  0
    7.2922   -1.0342   -0.0166 C   0  0  0  0  0
    8.7040   -1.0464   -0.0218 N   0  0  0  0  0
    9.3838   -2.2213   -0.0243 C   0  0  0  0  0
   10.8834   -2.1863   -0.0298 O   0  0  0  0  0
    8.7443   -3.4562   -0.0220 N   0  0  0  0  0
    7.3621   -3.5510   -0.0159 C   0  0  0  0  0
    6.6859   -4.8899   -0.0113 O   0  0  0  0  0
    6.5741   -2.3134   -0.0140 C   0  0  0  0  0
    5.2500   -2.3410   -0.0091 N   0  0  0  0  0
  1  2  1  0  0  0
  2  7  1  0  0  0
  2  3  2  0  0  0
  3  4  1  0  0  0
  4  5  2  0  0  0
  4 30  1  0  0  0
  5  6  1  0  0  0
  5  9  1  0  0  0
  6  7  2  0  0  0
  7  8  1  0  0  0
  9 22  1  0  0  0
  9 10  1  0  0  0
 10 11  1  0  0  0
 11 14  1  0  0  0
 11 13  1  0  0  0
 11 12  1  0  0  0
 14 17  1  0  0  0
 14 16  1  0  0  0
 14 15  1  0  0  0
 17 20  1  0  0  0
 17 19  1  0  0  0
 17 18  1  0  0  0
 20 21  1  0  0  0
 22 23  2  0  0  0
 22 29  1  0  0  0
 23 24  1  0  0  0
 24 26  1  0  0  0
 24 25  2  0  0  0
 26 27  1  0  0  0
 27 29  1  0  0  0
 27 28  2  0  0  0
 29 30  2  0  0  0
M  END
> <SMILES>
CC1=CC2=C(C=C1C)N(C[C@@H](O)[C@@H](O)[C@@H](O)CO)C3=NC(=O)NC(=O)C3=N2

> <NAME>
RIBOFLAVIN

> <BioCyc_link>


> <BioCyc_name_HTML>


> <CAS>
83-88-5

> <KEGG_ID>


> <toxTree.tree.cramer.CramerTreeResult>


> <FORMULA>


> <toxTree.tree.cramer.CramerRules>


$$$$
THREONINE
 OpenBabel30120812293D

  8  7  0  0  0  0  0  0  0  0999 V2000
    1.0000    0.0000    0.0000 C   0  0  0  0  0
    2.5000    0.0000    0.0000 C   0  0  0  0  0
    3.0193   -0.7348   -1.2002 O   0  0  0  0  0
    3.0007    1.4140    0.0000 C   0  0  0  0  0
    2.4814    2.1488    1.2002 N   0  0  0  0  0
    4.5007    1.4140    0.0000 C   0  0  0  0  0
    5.2507    0.1149    0.0000 O   0  0  0  0  0
    5.2507    2.7130    0.0000 O   0  0  0  0  0
  1  2  1  0  0  0
  2  4  1  0  0  0
  2  3  1  0  0  0
  4  6  1  0  0  0
  4  5  1  0  0  0
  6  8  2  0  0  0
  6  7  1  0  0  0
M  END
> <SMILES>
CC(O)C(N)C(O)=O

> <NAME>
THREONINE

> <BioCyc_link>


> <BioCyc_name_HTML>


> <CAS>
72-19-5

> <KEGG_ID>


> <toxTree.tree.cramer.CramerTreeResult>
1Y

> <FORMULA>
C4H9NO3

> <toxTree.tree.cramer.CramerRules>
Low (Class I)

$$$$
THYMINE
 OpenBabel30120812293D

  9  9  0  0  0  0  0  0  0  0999 V2000
    1.0000    0.0000    0.0000 C   0  0  0  0  0
    2.5000    0.0000    0.0000 C   0  0  0  0  0
    3.1879   -1.1952   -0.0000 C   0  0  0  0  0
    4.5842   -1.1944    0.0121 N   0  0  0  0  0
    5.2744    0.0187    0.0181 C   0  0  0  0  0
    6.7743    0.0301    0.0312 O   0  0  0  0  0
    4.5744    1.2069    0.0121 N   0  0  0  0  0
    3.1903    1.1993    0.0000 C   0  0  0  0  0
    2.4359    2.4957   -0.0131 O   0  0  0  0  0
  1  2  1  0  0  0
  2  8  1  0  0  0
  2  3  2  0  0  0
  3  4  1  0  0  0
  4  5  1  0  0  0
  5  7  1  0  0  0
  5  6  2  0  0  0
  7  8  1  0  0  0
  8  9  2  0  0  0
M  END
> <SMILES>
CC1=CNC(=O)NC1=O

> <NAME>
THYMINE

> <BioCyc_link>


> <BioCyc_name_HTML>


> <CAS>
65-71-4

> <KEGG_ID>


> <toxTree.tree.cramer.CramerTreeResult>
1Y

> <FORMULA>
C5H6N2O2

> <toxTree.tree.cramer.CramerRules>
Low (Class I)

$$$$
TRYPTOPHAN
 OpenBabel30120812293D

 16 17  0  0  0  0  0  0  0  0999 V2000
    1.0000    0.0000    0.0000 N   0  0  0  0  0
    2.5000    0.0000    0.0000 C   0  0  0  0  0
    2.9931   -0.6977    1.2329 H   0  0  0  0  0
    3.0193   -0.7348   -1.2002 C   0  0  0  0  0
    2.5089   -2.1452   -1.1833 C   0  0  0  0  0
    3.3022   -3.2993   -1.2086 C   0  0  0  0  0
    2.5201   -4.3902   -1.1826 N   0  0  0  0  0
    1.2047   -3.9717   -1.1400 C   0  0  0  0  0
    1.2413   -2.5015   -1.1422 C   0  0  0  0  0
   -0.0346   -1.7868   -1.1009 C   0  0  0  0  0
   -1.1880   -2.5496   -1.0567 C   0  0  0  0  0
   -1.1133   -3.9382   -1.0651 C   0  0  0  0  0
    0.0154   -4.5966   -1.1016 C   0  0  0  0  0
    3.0007    1.4140    0.0000 C   0  0  0  0  0
    2.0265    2.5546    0.0000 O   0  0  0  0  0
    4.4756    1.6873    0.0000 O   0  0  0  0  0
  1  2  1  0  0  0
  2 14  1  0  0  0
  2  4  1  0  0  0
  2  3  1  0  0  0
  4  5  1  0  0  0
  5  6  2  0  0  0
  5  9  1  0  0  0
  6  7  1  0  0  0
  7  8  1  0  0  0
  8 13  1  0  0  0
  8  9  2  0  0  0
  9 10  1  0  0  0
 10 11  2  0  0  0
 11 12  1  0  0  0
 12 13  2  0  0  0
 14 16  2  0  0  0
 14 15  1  0  0  0
M  END
> <SMILES>
N[C@@H](CC1=CNC2=C1C=CC=C2)C(O)=O

> <NAME>
TRYPTOPHAN

> <BioCyc_link>


> <BioCyc_name_HTML>


> <CAS>
73-22-3

> <KEGG_ID>


> <toxTree.tree.cramer.CramerTreeResult>
1Y

> <FORMULA>
C11H12N2O2

> <toxTree.tree.cramer.CramerRules>
Low (Class I)

$$$$
TYROSINE
 OpenBabel30120812293D

 14 14  0  0  0  0  0  0  0  0999 V2000
    1.0000    0.0000    0.0000 N   0  0  0  0  0
    2.5000    0.0000    0.0000 C   0  0  0  0  0
    2.9931   -0.6977    1.2329 H   0  0  0  0  0
    3.0193   -0.7348   -1.2002 C   0  0  0  0  0
    2.5089   -2.1452   -1.1833 C   0  0  0  0  0
    1.1527   -2.3853   -1.1145 C   0  0  0  0  0
    0.6791   -3.6986   -1.0867 C   0  0  0  0  0
    1.5837   -4.7605   -1.1349 C   0  0  0  0  0
    1.0848   -6.1748   -1.1056 O   0  0  0  0  0
    2.9371   -4.5066   -1.2096 C   0  0  0  0  0
    3.4001   -3.2024   -1.2368 C   0  0  0  0  0
    3.0007    1.4140    0.0000 C   0  0  0  0  0
    2.0265    2.5546    0.0000 O   0  0  0  0  0
    4.4756    1.6873    0.0000 O   0  0  0  0  0
  1  2  1  0  0  0
  2 12  1  0  0  0
  2  4  1  0  0  0
  2  3  1  0  0  0
  4  5  1  0  0  0
  5 11  1  0  0  0
  5  6  2  0  0  0
  6  7  1  0  0  0
  7  8  2  0  0  0
  8 10  1  0  0  0
  8  9  1  0  0  0
 10 11  2  0  0  0
 12 14  2  0  0  0
 12 13  1  0  0  0
M  END
> <SMILES>
N[C@@H](CC1=CC=C(O)C=C1)C(O)=O

> <NAME>
TYROSINE

> <BioCyc_link>


> <BioCyc_name_HTML>


> <CAS>
60-18-4

> <KEGG_ID>


> <toxTree.tree.cramer.CramerTreeResult>
1Y

> <FORMULA>
C9H11NO3

> <toxTree.tree.cramer.CramerRules>
Low (Class I)

$$$$
URACIL
 OpenBabel30120812293D

  8  8  0  0  0  0  0  0  0  0999 V2000
    1.0000    0.0000    0.0000 O   0  0  0  0  0
    2.5000    0.0000    0.0000 C   0  0  0  0  0
    3.1879   -1.1952   -0.0000 N   0  0  0  0  0
    4.5842   -1.1944    0.0121 C   0  0  0  0  0
    5.2744    0.0187    0.0181 C   0  0  0  0  0
    4.5744    1.2069    0.0121 C   0  0  0  0  0
    5.3151    2.5113    0.0185 O   0  0  0  0  0
    3.1903    1.1993    0.0000 N   0  0  0  0  0
  1  2  2  0  0  0
  2  8  1  0  0  0
  2  3  1  0  0  0
  3  4  1  0  0  0
  4  5  2  0  0  0
  5  6  1  0  0  0
  6  8  1  0  0  0
  6  7  2  0  0  0
M  END
> <SMILES>
O=C1NC=CC(=O)N1

> <NAME>
URACIL

> <BioCyc_link>


> <BioCyc_name_HTML>


> <CAS>
66-22-8

> <KEGG_ID>


> <toxTree.tree.cramer.CramerTreeResult>
1Y

> <FORMULA>
C4H4N2O2

> <toxTree.tree.cramer.CramerRules>
Low (Class I)

$$$$
URIDINE
 OpenBabel30120812293D

 21 22  0  0  0  0  0  0  0  0999 V2000
    1.0000    0.0000    0.0000 O   0  0  0  0  0
    2.5000    0.0000    0.0000 C   0  0  0  0  0
    3.0007    1.4140    0.0000 C   0  0  0  0  0
    3.9584    1.2394   -1.1412 H   0  0  0  0  0
    2.2311    2.6749   -0.4641 O   0  0  0  0  0
    3.0763    3.8291    0.1376 C   0  0  0  0  0
    2.3019    5.1094    0.2434 H   0  0  0  0  0
    4.2590    4.1447   -0.7293 N   0  0  0  0  0
    5.0450    3.1272   -1.2279 C   0  0  0  0  0
    6.1401    3.4280   -2.0402 C   0  0  0  0  0
    6.4279    4.7589   -2.3470 C   0  0  0  0  0
    7.6021    5.0923   -3.2189 O   0  0  0  0  0
    5.6304    5.7666   -1.8468 N   0  0  0  0  0
    4.5462    5.4617   -1.0420 C   0  0  0  0  0
    3.6795    6.5629   -0.5070 O   0  0  0  0  0
    3.5206    3.2951    1.5154 C   0  0  0  0  0
    2.6192    3.7994    2.6031 H   0  0  0  0  0
    4.9057    3.7659    1.8472 O   0  0  0  0  0
    3.4724    1.7595    1.4276 C   0  0  0  0  0
    2.5367    1.1925    2.4538 H   0  0  0  0  0
    4.8240    1.1683    1.6990 O   0  0  0  0  0
  1  2  1  0  0  0
  2  3  1  0  0  0
  3 19  1  0  0  0
  3  5  1  0  0  0
  3  4  1  0  0  0
  5  6  1  0  0  0
  6 16  1  0  0  0
  6  8  1  0  0  0
  6  7  1  0  0  0
  8 14  1  0  0  0
  8  9  1  0  0  0
  9 10  2  0  0  0
 10 11  1  0  0  0
 11 13  1  0  0  0
 11 12  2  0  0  0
 13 14  1  0  0  0
 14 15  2  0  0  0
 16 19  1  0  0  0
 16 18  1  0  0  0
 16 17  1  0  0  0
 19 21  1  0  0  0
 19 20  1  0  0  0
M  END
> <SMILES>
OC[C@H]1O[C@@H](N2C=CC(=O)NC2=O)[C@H](O)[C@@H]1O

> <NAME>
URIDINE

> <BioCyc_link>


> <BioCyc_name_HTML>


> <CAS>
58-96-8

> <KEGG_ID>


> <toxTree.tree.cramer.CramerTreeResult>
1Y

> <FORMULA>
C9H12N2O6

> <toxTree.tree.cramer.CramerRules>
Low (Class I)

$$$$
VALINE
 OpenBabel30120812293D

  9  8  0  0  0  0  0  0  0  0999 V2000
    1.0113    2.2114   -1.1991 C   0  0  0  0  0
    2.5076    2.1117   -1.2329 C   0  0  0  0  0
    2.9512    1.3717   -2.4600 C   0  0  0  0  0
    3.0007    1.4140    0.0000 C   0  0  0  0  0
    2.5000    0.0000    0.0000 H   0  0  0  0  0
    2.4814    2.1488    1.2002 N   0  0  0  0  0
    4.5007    1.4140    0.0000 C   0  0  0  0  0
    5.2507    0.1149    0.0000 O   0  0  0  0  0
    5.2507    2.7130    0.0000 O   0  0  0  0  0
  1  2  1  0  0  0
  2  3  1  0  0  0
  4  2  1  0  0  0
  4  7  1  0  0  0
  4  6  1  0  0  0
  4  5  1  0  0  0
  7  9  2  0  0  0
  7  8  1  0  0  0
M  END
> <SMILES>
CC(C)[C@H](N)C(O)=O

> <NAME>
VALINE

> <BioCyc_link>


> <BioCyc_name_HTML>


> <CAS>
72-18-4

> <KEGG_ID>


> <toxTree.tree.cramer.CramerTreeResult>
1Y

> <FORMULA>
C5H11NO2

> <toxTree.tree.cramer.CramerRules>
Low (Class I)

$$$$
WATER
 OpenBabel30120812293D

  3  2  0  0  0  0  0  0  0  0999 V2000
    1.0000    0.0000    0.0000 O   0  0  0  0  0
    0.4993    1.4140    0.0000 H   0  0  0  0  0
    2.5000    0.0000    0.0000 H   0  0  0  0  0
  1  3  1  0  0  0
  1  2  1  0  0  0
M  END
> <SMILES>
[OH2]

> <NAME>
WATER

> <BioCyc_link>


> <BioCyc_name_HTML>


> <CAS>
7732-18-5

> <KEGG_ID>


> <toxTree.tree.cramer.CramerTreeResult>
1Y

> <FORMULA>
H2O

> <toxTree.tree.cramer.CramerRules>
Low (Class I)

$$$$
Adenosine phosphate
 OpenBabel30120812293D

 23 25  0  0  0  0  0  0  0  0999 V2000
    1.0000    0.0000    0.0000 N   0  0  0  0  0
    2.5000    0.0000    0.0000 C   0  0  0  0  0
    3.2198   -1.1815    0.0025 N   0  0  0  0  0
    4.6102   -1.1577   -0.0102 C   0  0  0  0  0
    5.3097   -0.0535   -0.0126 N   0  0  0  0  0
    4.7290    1.1586   -0.0088 C   0  0  0  0  0
    3.2611    1.2494   -0.0027 C   0  0  0  0  0
    2.9518    2.5299   -0.0002 N   0  0  0  0  0
    4.1342    3.2806   -0.0049 C   0  0  0  0  0
    5.1956    2.4585   -0.0100 N   0  0  0  0  0
    6.6357    2.8781   -0.0160 C   0  0  0  0  0
    6.8785    4.2438    0.6721 O   0  0  0  0  0
    8.3741    4.1587    1.0774 C   0  0  0  0  0
    9.2694    4.5005   -0.0766 C   0  0  0  0  0
   10.7024    4.4064    0.3565 O   0  0  0  0  0
   11.5977    4.7482   -0.7975 P   0  0  0  0  0
   11.3553    3.7767   -1.9143 O   0  0  0  0  0
   11.2959    6.1299   -1.2973 O   0  0  0  0  0
   13.0307    4.6541   -0.3645 O   0  0  0  0  0
    8.5649    2.6917    1.5166 C   0  0  0  0  0
    9.9226    2.1905    1.1223 O   0  0  0  0  0
    7.4594    1.8779    0.8212 C   0  0  0  0  0
    8.0526    0.8136   -0.0536 O   0  0  0  0  0
  1  2  1  0  0  0
  2  3  1  0  0  0
  2  7  2  0  0  0
  3  4  2  0  0  0
  4  5  1  0  0  0
  5  6  2  0  0  0
  6 10  1  0  0  0
  6  7  1  0  0  0
  7  8  1  0  0  0
  8  9  2  0  0  0
  9 10  1  0  0  0
 10 11  1  0  0  0
 11 22  1  0  0  0
 11 12  1  0  0  0
 12 13  1  0  0  0
 13 20  1  0  0  0
 13 14  1  0  0  0
 14 15  1  0  0  0
 15 16  1  0  0  0
 16 19  2  0  0  0
 16 18  1  0  0  0
 16 17  1  0  0  0
 20 22  1  0  0  0
 20 21  1  0  0  0
 22 23  1  0  0  0
M  END
> <SMILES>
NC3N=CN=C1C=3(N=CN1C2OC(COP(O)(O)=O)C(O)C2(O))

> <NAME>
Adenosine phosphate

> <BioCyc_link>


> <BioCyc_name_HTML>


> <CAS>


> <KEGG_ID>


> <toxTree.tree.cramer.CramerTreeResult>


> <FORMULA>


> <toxTree.tree.cramer.CramerRules>


$$$$
Adenosine diphosphate
 OpenBabel30120812293D

 27 29  0  0  0  0  0  0  0  0999 V2000
    1.0000    0.0000    0.0000 N   0  0  0  0  0
    2.5000    0.0000    0.0000 C   0  0  0  0  0
    3.2198   -1.1815    0.0025 N   0  0  0  0  0
    4.6102   -1.1577   -0.0102 C   0  0  0  0  0
    5.3097   -0.0535   -0.0126 N   0  0  0  0  0
    4.7290    1.1586   -0.0088 C   0  0  0  0  0
    3.2611    1.2494   -0.0027 C   0  0  0  0  0
    2.9518    2.5299   -0.0002 N   0  0  0  0  0
    4.1342    3.2806   -0.0049 C   0  0  0  0  0
    5.1956    2.4585   -0.0100 N   0  0  0  0  0
    6.6357    2.8781   -0.0160 C   0  0  0  0  0
    6.8785    4.2438    0.6721 O   0  0  0  0  0
    8.3741    4.1587    1.0774 C   0  0  0  0  0
    9.2694    4.5005   -0.0766 C   0  0  0  0  0
   10.7024    4.4064    0.3565 O   0  0  0  0  0
   11.5977    4.7482   -0.7975 P   0  0  0  0  0
   11.3553    3.7767   -1.9143 O   0  0  0  0  0
   11.2959    6.1299   -1.2973 O   0  0  0  0  0
   13.0307    4.6541   -0.3645 O   0  0  0  0  0
   13.9260    4.9960   -1.5184 P   0  0  0  0  0
   13.6836    4.0244   -2.6353 O   0  0  0  0  0
   13.6242    6.3777   -2.0182 O   0  0  0  0  0
   15.3591    4.9018   -1.0854 O   0  0  0  0  0
    8.5649    2.6917    1.5166 C   0  0  0  0  0
    9.9226    2.1905    1.1223 O   0  0  0  0  0
    7.4594    1.8779    0.8212 C   0  0  0  0  0
    8.0526    0.8136   -0.0536 O   0  0  0  0  0
  1  2  1  0  0  0
  2  3  1  0  0  0
  2  7  2  0  0  0
  3  4  2  0  0  0
  4  5  1  0  0  0
  5  6  2  0  0  0
  6 10  1  0  0  0
  6  7  1  0  0  0
  7  8  1  0  0  0
  8  9  2  0  0  0
  9 10  1  0  0  0
 10 11  1  0  0  0
 11 26  1  0  0  0
 11 12  1  0  0  0
 12 13  1  0  0  0
 13 24  1  0  0  0
 13 14  1  0  0  0
 14 15  1  0  0  0
 15 16  1  0  0  0
 16 19  1  0  0  0
 16 18  2  0  0  0
 16 17  1  0  0  0
 19 20  1  0  0  0
 20 23  2  0  0  0
 20 22  1  0  0  0
 20 21  1  0  0  0
 24 26  1  0  0  0
 24 25  1  0  0  0
 26 27  1  0  0  0
M  END
> <SMILES>
NC3N=CN=C1C=3(N=CN1C2OC(COP(O)(=O)OP(O)(O)=O)C(O)C2(O))

> <NAME>
Adenosine diphosphate

> <BioCyc_link>


> <BioCyc_name_HTML>


> <CAS>


> <KEGG_ID>


> <toxTree.tree.cramer.CramerTreeResult>


> <FORMULA>


> <toxTree.tree.cramer.CramerRules>


$$$$
Adenosine triphosphate
 OpenBabel30120812293D

 31 33  0  0  0  0  0  0  0  0999 V2000
    1.0000    0.0000    0.0000 N   0  0  0  0  0
    2.5000    0.0000    0.0000 C   0  0  0  0  0
    3.2198   -1.1815    0.0025 N   0  0  0  0  0
    4.6102   -1.1577   -0.0102 C   0  0  0  0  0
    5.3097   -0.0535   -0.0126 N   0  0  0  0  0
    4.7290    1.1586   -0.0088 C   0  0  0  0  0
    3.2611    1.2494   -0.0027 C   0  0  0  0  0
    2.9518    2.5299   -0.0002 N   0  0  0  0  0
    4.1342    3.2806   -0.0049 C   0  0  0  0  0
    5.1956    2.4585   -0.0100 N   0  0  0  0  0
    6.6357    2.8781   -0.0160 C   0  0  0  0  0
    6.8785    4.2438    0.6721 O   0  0  0  0  0
    8.3741    4.1587    1.0774 C   0  0  0  0  0
    9.2694    4.5005   -0.0766 C   0  0  0  0  0
   10.7024    4.4064    0.3565 O   0  0  0  0  0
   11.5977    4.7482   -0.7975 P   0  0  0  0  0
   11.3553    3.7767   -1.9143 O   0  0  0  0  0
   11.2959    6.1299   -1.2973 O   0  0  0  0  0
   13.0307    4.6541   -0.3645 O   0  0  0  0  0
   13.9260    4.9960   -1.5184 P   0  0  0  0  0
   13.6836    4.0244   -2.6353 O   0  0  0  0  0
   13.6242    6.3777   -2.0182 O   0  0  0  0  0
   15.3591    4.9018   -1.0854 O   0  0  0  0  0
   16.2543    5.2437   -2.2393 P   0  0  0  0  0
   16.0119    4.2721   -3.3562 O   0  0  0  0  0
   15.9526    6.6254   -2.7392 O   0  0  0  0  0
   17.6874    5.1495   -1.8063 O   0  0  0  0  0
    8.5649    2.6917    1.5166 C   0  0  0  0  0
    9.9226    2.1905    1.1223 O   0  0  0  0  0
    7.4594    1.8779    0.8212 C   0  0  0  0  0
    8.0526    0.8136   -0.0536 O   0  0  0  0  0
  1  2  1  0  0  0
  2  3  1  0  0  0
  2  7  2  0  0  0
  3  4  2  0  0  0
  4  5  1  0  0  0
  5  6  2  0  0  0
  6 10  1  0  0  0
  6  7  1  0  0  0
  7  8  1  0  0  0
  8  9  2  0  0  0
  9 10  1  0  0  0
 10 11  1  0  0  0
 11 30  1  0  0  0
 11 12  1  0  0  0
 12 13  1  0  0  0
 13 28  1  0  0  0
 13 14  1  0  0  0
 14 15  1  0  0  0
 15 16  1  0  0  0
 16 19  1  0  0  0
 16 18  2  0  0  0
 16 17  1  0  0  0
 19 20  1  0  0  0
 20 23  1  0  0  0
 20 22  2  0  0  0
 20 21  1  0  0  0
 23 24  1  0  0  0
 24 27  2  0  0  0
 24 26  1  0  0  0
 24 25  1  0  0  0
 28 30  1  0  0  0
 28 29  1  0  0  0
 30 31  1  0  0  0
M  END
> <SMILES>
NC3N=CN=C1C=3(N=CN1C2OC(COP(O)(=O)OP(O)(=O)OP(O)(O)=O)C(O)C2(O))

> <NAME>
Adenosine triphosphate

> <BioCyc_link>


> <BioCyc_name_HTML>


> <CAS>


> <KEGG_ID>


> <toxTree.tree.cramer.CramerTreeResult>


> <FORMULA>


> <toxTree.tree.cramer.CramerRules>


$$$$
Guanosine monophosphate
 OpenBabel30120812293D

 24 26  0  0  0  0  0  0  0  0999 V2000
    1.0000    0.0000    0.0000 N   0  0  0  0  0
    2.5000    0.0000    0.0000 C   0  0  0  0  0
    3.1915   -1.2066    0.0000 N   0  0  0  0  0
    4.4961   -1.2868    0.0124 C   0  0  0  0  0
    5.1409   -2.6411    0.0180 O   0  0  0  0  0
    5.2778   -0.1934    0.0202 C   0  0  0  0  0
    6.6414    0.0247    0.0330 N   0  0  0  0  0
    6.8498    1.3510    0.0348 C   0  0  0  0  0
    5.6219    2.0248    0.0232 N   0  0  0  0  0
    4.6494    1.1362    0.0137 C   0  0  0  0  0
    3.1879    1.2004   -0.0000 N   0  0  0  0  0
    5.4434    3.5141    0.0217 C   0  0  0  0  0
    5.6336    4.2939    1.3459 O   0  0  0  0  0
    5.2569    5.7445    0.9429 C   0  0  0  0  0
    3.7702    5.9428    0.9566 C   0  0  0  0  0
    3.4497    7.3542    0.5623 O   0  0  0  0  0
    1.9629    7.5526    0.5760 P   0  0  0  0  0
    1.3307    6.6107   -0.4054 O   0  0  0  0  0
    1.4121    7.2565    1.9394 O   0  0  0  0  0
    1.6424    8.9639    0.1817 O   0  0  0  0  0
    5.8281    5.9024   -0.4819 C   0  0  0  0  0
    4.9255    6.7527   -1.3258 O   0  0  0  0  0
    5.9466    4.4842   -1.0672 C   0  0  0  0  0
    5.1262    4.3538   -2.3162 O   0  0  0  0  0
  1  2  1  0  0  0
  2  3  1  0  0  0
  2 11  2  0  0  0
  3  4  1  0  0  0
  4  6  1  0  0  0
  4  5  2  0  0  0
  6  7  1  0  0  0
  6 10  2  0  0  0
  7  8  2  0  0  0
  8  9  1  0  0  0
  9 10  1  0  0  0
  9 12  1  0  0  0
 10 11  1  0  0  0
 12 23  1  0  0  0
 12 13  1  0  0  0
 13 14  1  0  0  0
 14 21  1  0  0  0
 14 15  1  0  0  0
 15 16  1  0  0  0
 16 17  1  0  0  0
 17 20  2  0  0  0
 17 19  1  0  0  0
 17 18  1  0  0  0
 21 23  1  0  0  0
 21 22  1  0  0  0
 23 24  1  0  0  0
M  END
> <SMILES>
NC1NC(=O)C=2N=CN(C=2(N=1))C3OC(COP(O)(O)=O)C(O)C3(O)

> <NAME>
Guanosine monophosphate

> <BioCyc_link>


> <BioCyc_name_HTML>


> <CAS>


> <KEGG_ID>


> <toxTree.tree.cramer.CramerTreeResult>


> <FORMULA>


> <toxTree.tree.cramer.CramerRules>


$$$$
Guanosine diphosphate
 OpenBabel30120812293D

 28 30  0  0  0  0  0  0  0  0999 V2000
    1.0000    0.0000    0.0000 N   0  0  0  0  0
    2.5000    0.0000    0.0000 C   0  0  0  0  0
    3.1915   -1.2066    0.0000 N   0  0  0  0  0
    4.4961   -1.2868    0.0124 C   0  0  0  0  0
    5.1409   -2.6411    0.0180 O   0  0  0  0  0
    5.2778   -0.1934    0.0202 C   0  0  0  0  0
    6.6414    0.0247    0.0330 N   0  0  0  0  0
    6.8498    1.3510    0.0348 C   0  0  0  0  0
    5.6219    2.0248    0.0232 N   0  0  0  0  0
    4.6494    1.1362    0.0137 C   0  0  0  0  0
    3.1879    1.2004   -0.0000 N   0  0  0  0  0
    5.4434    3.5141    0.0217 C   0  0  0  0  0
    5.6336    4.2939    1.3459 O   0  0  0  0  0
    5.2569    5.7445    0.9429 C   0  0  0  0  0
    3.7702    5.9428    0.9566 C   0  0  0  0  0
    3.4497    7.3542    0.5623 O   0  0  0  0  0
    1.9629    7.5526    0.5760 P   0  0  0  0  0
    1.3307    6.6107   -0.4054 O   0  0  0  0  0
    1.4121    7.2565    1.9394 O   0  0  0  0  0
    1.6424    8.9639    0.1817 O   0  0  0  0  0
    0.1557    9.1623    0.1954 P   0  0  0  0  0
   -0.4765    8.2204   -0.7860 O   0  0  0  0  0
   -0.3952    8.8662    1.5589 O   0  0  0  0  0
   -0.1648   10.5736   -0.1989 O   0  0  0  0  0
    5.8281    5.9024   -0.4819 C   0  0  0  0  0
    4.9255    6.7527   -1.3258 O   0  0  0  0  0
    5.9466    4.4842   -1.0672 C   0  0  0  0  0
    5.1262    4.3538   -2.3162 O   0  0  0  0  0
  1  2  1  0  0  0
  2  3  1  0  0  0
  2 11  2  0  0  0
  3  4  1  0  0  0
  4  6  1  0  0  0
  4  5  2  0  0  0
  6  7  1  0  0  0
  6 10  2  0  0  0
  7  8  2  0  0  0
  8  9  1  0  0  0
  9 10  1  0  0  0
  9 12  1  0  0  0
 10 11  1  0  0  0
 12 27  1  0  0  0
 12 13  1  0  0  0
 13 14  1  0  0  0
 14 25  1  0  0  0
 14 15  1  0  0  0
 15 16  1  0  0  0
 16 17  1  0  0  0
 17 20  1  0  0  0
 17 19  2  0  0  0
 17 18  1  0  0  0
 20 21  1  0  0  0
 21 24  2  0  0  0
 21 23  1  0  0  0
 21 22  1  0  0  0
 25 27  1  0  0  0
 25 26  1  0  0  0
 27 28  1  0  0  0
M  END
> <SMILES>
NC1NC(=O)C=2N=CN(C=2(N=1))C3OC(COP(O)(=O)OP(O)(O)=O)C(O)C3(O)

> <NAME>
Guanosine diphosphate

> <BioCyc_link>


> <BioCyc_name_HTML>


> <CAS>


> <KEGG_ID>


> <toxTree.tree.cramer.CramerTreeResult>


> <FORMULA>


> <toxTree.tree.cramer.CramerRules>


$$$$
Guanosine triphosphate
 OpenBabel30120812293D

 32 34  0  0  0  0  0  0  0  0999 V2000
    1.0000    0.0000    0.0000 N   0  0  0  0  0
    2.5000    0.0000    0.0000 C   0  0  0  0  0
    3.1915   -1.2066    0.0000 N   0  0  0  0  0
    4.4961   -1.2868    0.0124 C   0  0  0  0  0
    5.1409   -2.6411    0.0180 O   0  0  0  0  0
    5.2778   -0.1934    0.0202 C   0  0  0  0  0
    6.6414    0.0247    0.0330 N   0  0  0  0  0
    6.8498    1.3510    0.0348 C   0  0  0  0  0
    5.6219    2.0248    0.0232 N   0  0  0  0  0
    4.6494    1.1362    0.0137 C   0  0  0  0  0
    3.1879    1.2004   -0.0000 N   0  0  0  0  0
    5.4434    3.5141    0.0217 C   0  0  0  0  0
    5.6336    4.2939    1.3459 O   0  0  0  0  0
    5.2569    5.7445    0.9429 C   0  0  0  0  0
    3.7702    5.9428    0.9566 C   0  0  0  0  0
    3.4497    7.3542    0.5623 O   0  0  0  0  0
    1.9629    7.5526    0.5760 P   0  0  0  0  0
    1.3307    6.6107   -0.4054 O   0  0  0  0  0
    1.4121    7.2565    1.9394 O   0  0  0  0  0
    1.6424    8.9639    0.1817 O   0  0  0  0  0
    0.1557    9.1623    0.1954 P   0  0  0  0  0
   -0.4765    8.2204   -0.7860 O   0  0  0  0  0
   -0.3952    8.8662    1.5589 O   0  0  0  0  0
   -0.1648   10.5736   -0.1989 O   0  0  0  0  0
   -1.6516   10.7720   -0.1851 P   0  0  0  0  0
   -2.2838    9.8301   -1.1666 O   0  0  0  0  0
   -2.2024   10.4759    1.1783 O   0  0  0  0  0
   -1.9721   12.1833   -0.5795 O   0  0  0  0  0
    5.8281    5.9024   -0.4819 C   0  0  0  0  0
    4.9255    6.7527   -1.3258 O   0  0  0  0  0
    5.9466    4.4842   -1.0672 C   0  0  0  0  0
    5.1262    4.3538   -2.3162 O   0  0  0  0  0
  1  2  1  0  0  0
  2  3  1  0  0  0
  2 11  2  0  0  0
  3  4  1  0  0  0
  4  6  1  0  0  0
  4  5  2  0  0  0
  6  7  1  0  0  0
  6 10  2  0  0  0
  7  8  2  0  0  0
  8  9  1  0  0  0
  9 10  1  0  0  0
  9 12  1  0  0  0
 10 11  1  0  0  0
 12 31  1  0  0  0
 12 13  1  0  0  0
 13 14  1  0  0  0
 14 29  1  0  0  0
 14 15  1  0  0  0
 15 16  1  0  0  0
 16 17  1  0  0  0
 17 20  1  0  0  0
 17 19  2  0  0  0
 17 18  1  0  0  0
 20 21  1  0  0  0
 21 24  1  0  0  0
 21 23  2  0  0  0
 21 22  1  0  0  0
 24 25  1  0  0  0
 25 28  2  0  0  0
 25 27  1  0  0  0
 25 26  1  0  0  0
 29 31  1  0  0  0
 29 30  1  0  0  0
 31 32  1  0  0  0
M  END
> <SMILES>
NC1NC(=O)C=2N=CN(C=2(N=1))C3OC(COP(O)(=O)OP(O)(=O)OP(O)(O)=O)C(O)C3(O)

> <NAME>
Guanosine triphosphate

> <BioCyc_link>


> <BioCyc_name_HTML>


> <CAS>


> <KEGG_ID>


> <toxTree.tree.cramer.CramerTreeResult>


> <FORMULA>


> <toxTree.tree.cramer.CramerRules>


$$$$
Uridine monophosphate
 OpenBabel30120812293D

 21 22  0  0  0  0  0  0  0  0999 V2000
    1.0000    0.0000    0.0000 O   0  0  0  0  0
    2.5000    0.0000    0.0000 C   0  0  0  0  0
    3.1879   -1.1952   -0.0000 C   0  0  0  0  0
    4.5842   -1.1944    0.0121 C   0  0  0  0  0
    5.2744    0.0187    0.0181 N   0  0  0  0  0
    4.5744    1.2069    0.0121 C   0  0  0  0  0
    5.3151    2.5113    0.0185 O   0  0  0  0  0
    3.1903    1.1993    0.0000 N   0  0  0  0  0
    6.7743    0.0301    0.0312 C   0  0  0  0  0
    7.3192    1.2538    0.8079 O   0  0  0  0  0
    8.7498    0.7976    1.1999 C   0  0  0  0  0
    9.7127    0.9980    0.0673 C   0  0  0  0  0
   11.0801    0.5457    0.4866 O   0  0  0  0  0
   12.0430    0.7461   -0.6459 P   0  0  0  0  0
   11.5945   -0.0668   -1.8241 O   0  0  0  0  0
   12.0751    2.1900   -1.0510 O   0  0  0  0  0
   13.4103    0.2939   -0.2266 O   0  0  0  0  0
    8.5907   -0.6993    1.5392 C   0  0  0  0  0
    9.7997   -1.4745    1.1062 O   0  0  0  0  0
    7.3345   -1.1869    0.7960 C   0  0  0  0  0
    7.6748   -2.2996   -0.1506 O   0  0  0  0  0
  1  2  2  0  0  0
  2  8  1  0  0  0
  2  3  1  0  0  0
  3  4  2  0  0  0
  4  5  1  0  0  0
  5  6  1  0  0  0
  5  9  1  0  0  0
  6  8  1  0  0  0
  6  7  2  0  0  0
  9 20  1  0  0  0
  9 10  1  0  0  0
 10 11  1  0  0  0
 11 18  1  0  0  0
 11 12  1  0  0  0
 12 13  1  0  0  0
 13 14  1  0  0  0
 14 17  2  0  0  0
 14 16  1  0  0  0
 14 15  1  0  0  0
 18 20  1  0  0  0
 18 19  1  0  0  0
 20 21  1  0  0  0
M  END
> <SMILES>
O=C1C=CN(C(=O)N1)C2OC(COP(O)(O)=O)C(O)C2(O)

> <NAME>
Uridine monophosphate

> <BioCyc_link>


> <BioCyc_name_HTML>


> <CAS>


> <KEGG_ID>


> <toxTree.tree.cramer.CramerTreeResult>


> <FORMULA>


> <toxTree.tree.cramer.CramerRules>


$$$$
Uridine diphosphate
 OpenBabel30120812293D

 25 26  0  0  0  0  0  0  0  0999 V2000
    1.0000    0.0000    0.0000 O   0  0  0  0  0
    2.5000    0.0000    0.0000 C   0  0  0  0  0
    3.1879   -1.1952   -0.0000 C   0  0  0  0  0
    4.5842   -1.1944    0.0121 C   0  0  0  0  0
    5.2744    0.0187    0.0181 N   0  0  0  0  0
    4.5744    1.2069    0.0121 C   0  0  0  0  0
    5.3151    2.5113    0.0185 O   0  0  0  0  0
    3.1903    1.1993    0.0000 N   0  0  0  0  0
    6.7743    0.0301    0.0312 C   0  0  0  0  0
    7.3192    1.2538    0.8079 O   0  0  0  0  0
    8.7498    0.7976    1.1999 C   0  0  0  0  0
    9.7127    0.9980    0.0673 C   0  0  0  0  0
   11.0801    0.5457    0.4866 O   0  0  0  0  0
   12.0430    0.7461   -0.6459 P   0  0  0  0  0
   11.5945   -0.0668   -1.8241 O   0  0  0  0  0
   12.0751    2.1900   -1.0510 O   0  0  0  0  0
   13.4103    0.2939   -0.2266 O   0  0  0  0  0
   14.3732    0.4942   -1.3592 P   0  0  0  0  0
   13.9247   -0.3186   -2.5373 O   0  0  0  0  0
   14.4053    1.9382   -1.7642 O   0  0  0  0  0
   15.7405    0.0420   -0.9399 O   0  0  0  0  0
    8.5907   -0.6993    1.5392 C   0  0  0  0  0
    9.7997   -1.4745    1.1062 O   0  0  0  0  0
    7.3345   -1.1869    0.7960 C   0  0  0  0  0
    7.6748   -2.2996   -0.1506 O   0  0  0  0  0
  1  2  2  0  0  0
  2  8  1  0  0  0
  2  3  1  0  0  0
  3  4  2  0  0  0
  4  5  1  0  0  0
  5  6  1  0  0  0
  5  9  1  0  0  0
  6  8  1  0  0  0
  6  7  2  0  0  0
  9 24  1  0  0  0
  9 10  1  0  0  0
 10 11  1  0  0  0
 11 22  1  0  0  0
 11 12  1  0  0  0
 12 13  1  0  0  0
 13 14  1  0  0  0
 14 17  1  0  0  0
 14 16  2  0  0  0
 14 15  1  0  0  0
 17 18  1  0  0  0
 18 21  2  0  0  0
 18 20  1  0  0  0
 18 19  1  0  0  0
 22 24  1  0  0  0
 22 23  1  0  0  0
 24 25  1  0  0  0
M  END
> <SMILES>
O=C1C=CN(C(=O)N1)C2OC(COP(O)(=O)OP(O)(O)=O)C(O)C2(O)

> <NAME>
Uridine diphosphate

> <BioCyc_link>


> <BioCyc_name_HTML>


> <CAS>


> <KEGG_ID>


> <toxTree.tree.cramer.CramerTreeResult>


> <FORMULA>


> <toxTree.tree.cramer.CramerRules>


$$$$
Uridine triphosphate
 OpenBabel30120812293D

 29 30  0  0  0  0  0  0  0  0999 V2000
    1.0000    0.0000    0.0000 O   0  0  0  0  0
    2.5000    0.0000    0.0000 C   0  0  0  0  0
    3.1879   -1.1952   -0.0000 C   0  0  0  0  0
    4.5842   -1.1944    0.0121 C   0  0  0  0  0
    5.2744    0.0187    0.0181 N   0  0  0  0  0
    4.5744    1.2069    0.0121 C   0  0  0  0  0
    5.3151    2.5113    0.0185 O   0  0  0  0  0
    3.1903    1.1993    0.0000 N   0  0  0  0  0
    6.7743    0.0301    0.0312 C   0  0  0  0  0
    7.3192    1.2538    0.8079 O   0  0  0  0  0
    8.7498    0.7976    1.1999 C   0  0  0  0  0
    9.7127    0.9980    0.0673 C   0  0  0  0  0
   11.0801    0.5457    0.4866 O   0  0  0  0  0
   12.0430    0.7461   -0.6459 P   0  0  0  0  0
   11.5945   -0.0668   -1.8241 O   0  0  0  0  0
   12.0751    2.1900   -1.0510 O   0  0  0  0  0
   13.4103    0.2939   -0.2266 O   0  0  0  0  0
   14.3732    0.4942   -1.3592 P   0  0  0  0  0
   13.9247   -0.3186   -2.5373 O   0  0  0  0  0
   14.4053    1.9382   -1.7642 O   0  0  0  0  0
   15.7405    0.0420   -0.9399 O   0  0  0  0  0
   16.7034    0.2424   -2.0724 P   0  0  0  0  0
   16.2549   -0.5705   -3.2506 O   0  0  0  0  0
   16.7355    1.6863   -2.4775 O   0  0  0  0  0
   18.0708   -0.2099   -1.6531 O   0  0  0  0  0
    8.5907   -0.6993    1.5392 C   0  0  0  0  0
    9.7997   -1.4745    1.1062 O   0  0  0  0  0
    7.3345   -1.1869    0.7960 C   0  0  0  0  0
    7.6748   -2.2996   -0.1506 O   0  0  0  0  0
  1  2  2  0  0  0
  2  8  1  0  0  0
  2  3  1  0  0  0
  3  4  2  0  0  0
  4  5  1  0  0  0
  5  6  1  0  0  0
  5  9  1  0  0  0
  6  8  1  0  0  0
  6  7  2  0  0  0
  9 28  1  0  0  0
  9 10  1  0  0  0
 10 11  1  0  0  0
 11 26  1  0  0  0
 11 12  1  0  0  0
 12 13  1  0  0  0
 13 14  1  0  0  0
 14 17  1  0  0  0
 14 16  2  0  0  0
 14 15  1  0  0  0
 17 18  1  0  0  0
 18 21  1  0  0  0
 18 20  2  0  0  0
 18 19  1  0  0  0
 21 22  1  0  0  0
 22 25  2  0  0  0
 22 24  1  0  0  0
 22 23  1  0  0  0
 26 28  1  0  0  0
 26 27  1  0  0  0
 28 29  1  0  0  0
M  END
> <SMILES>
O=C1C=CN(C(=O)N1)C2OC(COP(O)(=O)OP(O)(=O)OP(O)(O)=O)C(O)C2(O)

> <NAME>
Uridine triphosphate

> <BioCyc_link>


> <BioCyc_name_HTML>


> <CAS>


> <KEGG_ID>


> <toxTree.tree.cramer.CramerTreeResult>


> <FORMULA>


> <toxTree.tree.cramer.CramerRules>


$$$$
Cytidine monophosphate
 OpenBabel30120812293D

 21 22  0  0  0  0  0  0  0  0999 V2000
    1.0000    0.0000    0.0000 N   0  0  0  0  0
    2.5000    0.0000    0.0000 C   0  0  0  0  0
    3.1879   -1.1952   -0.0000 C   0  0  0  0  0
    4.5842   -1.1944    0.0121 C   0  0  0  0  0
    5.2744    0.0187    0.0181 N   0  0  0  0  0
    4.5744    1.2069    0.0121 C   0  0  0  0  0
    5.3151    2.5113    0.0185 O   0  0  0  0  0
    3.1903    1.1993    0.0000 N   0  0  0  0  0
    6.7743    0.0301    0.0312 C   0  0  0  0  0
    7.3192    1.2538    0.8079 O   0  0  0  0  0
    8.7498    0.7976    1.1999 C   0  0  0  0  0
    9.7127    0.9980    0.0673 C   0  0  0  0  0
   11.0801    0.5457    0.4866 O   0  0  0  0  0
   12.0430    0.7461   -0.6459 P   0  0  0  0  0
   11.5945   -0.0668   -1.8241 O   0  0  0  0  0
   12.0751    2.1900   -1.0510 O   0  0  0  0  0
   13.4103    0.2939   -0.2266 O   0  0  0  0  0
    8.5907   -0.6993    1.5392 C   0  0  0  0  0
    9.7997   -1.4745    1.1062 O   0  0  0  0  0
    7.3345   -1.1869    0.7960 C   0  0  0  0  0
    7.6748   -2.2996   -0.1506 O   0  0  0  0  0
  1  2  1  0  0  0
  2  8  2  0  0  0
  2  3  1  0  0  0
  3  4  2  0  0  0
  4  5  1  0  0  0
  5  6  1  0  0  0
  5  9  1  0  0  0
  6  8  1  0  0  0
  6  7  2  0  0  0
  9 20  1  0  0  0
  9 10  1  0  0  0
 10 11  1  0  0  0
 11 18  1  0  0  0
 11 12  1  0  0  0
 12 13  1  0  0  0
 13 14  1  0  0  0
 14 17  2  0  0  0
 14 16  1  0  0  0
 14 15  1  0  0  0
 18 20  1  0  0  0
 18 19  1  0  0  0
 20 21  1  0  0  0
M  END
> <SMILES>
NC=1C=CN(C(=O)N=1)C2OC(COP(O)(O)=O)C(O)C2(O)

> <NAME>
Cytidine monophosphate

> <BioCyc_link>


> <BioCyc_name_HTML>


> <CAS>


> <KEGG_ID>


> <toxTree.tree.cramer.CramerTreeResult>


> <FORMULA>


> <toxTree.tree.cramer.CramerRules>


$$$$
Cytidine diphosphate
 OpenBabel30120812293D

 25 26  0  0  0  0  0  0  0  0999 V2000
    1.0000    0.0000    0.0000 N   0  0  0  0  0
    2.5000    0.0000    0.0000 C   0  0  0  0  0
    3.1879   -1.1952   -0.0000 C   0  0  0  0  0
    4.5842   -1.1944    0.0121 C   0  0  0  0  0
    5.2744    0.0187    0.0181 N   0  0  0  0  0
    4.5744    1.2069    0.0121 C   0  0  0  0  0
    5.3151    2.5113    0.0185 O   0  0  0  0  0
    3.1903    1.1993    0.0000 N   0  0  0  0  0
    6.7743    0.0301    0.0312 C   0  0  0  0  0
    7.3192    1.2538    0.8079 O   0  0  0  0  0
    8.7498    0.7976    1.1999 C   0  0  0  0  0
    9.7127    0.9980    0.0673 C   0  0  0  0  0
   11.0801    0.5457    0.4866 O   0  0  0  0  0
   12.0430    0.7461   -0.6459 P   0  0  0  0  0
   11.5945   -0.0668   -1.8241 O   0  0  0  0  0
   12.0751    2.1900   -1.0510 O   0  0  0  0  0
   13.4103    0.2939   -0.2266 O   0  0  0  0  0
   14.3732    0.4942   -1.3592 P   0  0  0  0  0
   13.9247   -0.3186   -2.5373 O   0  0  0  0  0
   14.4053    1.9382   -1.7642 O   0  0  0  0  0
   15.7405    0.0420   -0.9399 O   0  0  0  0  0
    8.5907   -0.6993    1.5392 C   0  0  0  0  0
    9.7997   -1.4745    1.1062 O   0  0  0  0  0
    7.3345   -1.1869    0.7960 C   0  0  0  0  0
    7.6748   -2.2996   -0.1506 O   0  0  0  0  0
  1  2  1  0  0  0
  2  8  2  0  0  0
  2  3  1  0  0  0
  3  4  2  0  0  0
  4  5  1  0  0  0
  5  6  1  0  0  0
  5  9  1  0  0  0
  6  8  1  0  0  0
  6  7  2  0  0  0
  9 24  1  0  0  0
  9 10  1  0  0  0
 10 11  1  0  0  0
 11 22  1  0  0  0
 11 12  1  0  0  0
 12 13  1  0  0  0
 13 14  1  0  0  0
 14 17  1  0  0  0
 14 16  2  0  0  0
 14 15  1  0  0  0
 17 18  1  0  0  0
 18 21  2  0  0  0
 18 20  1  0  0  0
 18 19  1  0  0  0
 22 24  1  0  0  0
 22 23  1  0  0  0
 24 25  1  0  0  0
M  END
> <SMILES>
NC=1C=CN(C(=O)N=1)C2OC(COP(O)(=O)OP(O)(O)=O)C(O)C2(O)

> <NAME>
Cytidine diphosphate

> <BioCyc_link>


> <BioCyc_name_HTML>


> <CAS>


> <KEGG_ID>


> <toxTree.tree.cramer.CramerTreeResult>


> <FORMULA>


> <toxTree.tree.cramer.CramerRules>


$$$$
Cytidine triphosphate
 OpenBabel30120812293D

 29 30  0  0  0  0  0  0  0  0999 V2000
    1.0000    0.0000    0.0000 N   0  0  0  0  0
    2.5000    0.0000    0.0000 C   0  0  0  0  0
    3.1879   -1.1952   -0.0000 C   0  0  0  0  0
    4.5842   -1.1944    0.0121 C   0  0  0  0  0
    5.2744    0.0187    0.0181 N   0  0  0  0  0
    4.5744    1.2069    0.0121 C   0  0  0  0  0
    5.3151    2.5113    0.0185 O   0  0  0  0  0
    3.1903    1.1993    0.0000 N   0  0  0  0  0
    6.7743    0.0301    0.0312 C   0  0  0  0  0
    7.3192    1.2538    0.8079 O   0  0  0  0  0
    8.7498    0.7976    1.1999 C   0  0  0  0  0
    9.7127    0.9980    0.0673 C   0  0  0  0  0
   11.0801    0.5457    0.4866 O   0  0  0  0  0
   12.0430    0.7461   -0.6459 P   0  0  0  0  0
   11.5945   -0.0668   -1.8241 O   0  0  0  0  0
   12.0751    2.1900   -1.0510 O   0  0  0  0  0
   13.4103    0.2939   -0.2266 O   0  0  0  0  0
   14.3732    0.4942   -1.3592 P   0  0  0  0  0
   13.9247   -0.3186   -2.5373 O   0  0  0  0  0
   14.4053    1.9382   -1.7642 O   0  0  0  0  0
   15.7405    0.0420   -0.9399 O   0  0  0  0  0
   16.7034    0.2424   -2.0724 P   0  0  0  0  0
   16.2549   -0.5705   -3.2506 O   0  0  0  0  0
   16.7355    1.6863   -2.4775 O   0  0  0  0  0
   18.0708   -0.2099   -1.6531 O   0  0  0  0  0
    8.5907   -0.6993    1.5392 C   0  0  0  0  0
    9.7997   -1.4745    1.1062 O   0  0  0  0  0
    7.3345   -1.1869    0.7960 C   0  0  0  0  0
    7.6748   -2.2996   -0.1506 O   0  0  0  0  0
  1  2  1  0  0  0
  2  8  2  0  0  0
  2  3  1  0  0  0
  3  4  2  0  0  0
  4  5  1  0  0  0
  5  6  1  0  0  0
  5  9  1  0  0  0
  6  8  1  0  0  0
  6  7  2  0  0  0
  9 28  1  0  0  0
  9 10  1  0  0  0
 10 11  1  0  0  0
 11 26  1  0  0  0
 11 12  1  0  0  0
 12 13  1  0  0  0
 13 14  1  0  0  0
 14 17  1  0  0  0
 14 16  2  0  0  0
 14 15  1  0  0  0
 17 18  1  0  0  0
 18 21  1  0  0  0
 18 20  2  0  0  0
 18 19  1  0  0  0
 21 22  1  0  0  0
 22 25  2  0  0  0
 22 24  1  0  0  0
 22 23  1  0  0  0
 26 28  1  0  0  0
 26 27  1  0  0  0
 28 29  1  0  0  0
M  END
> <SMILES>
NC=1C=CN(C(=O)N=1)C2OC(COP(O)(=O)OP(O)(=O)OP(O)(O)=O)C(O)C2(O)

> <NAME>
Cytidine triphosphate

> <BioCyc_link>


> <BioCyc_name_HTML>


> <CAS>


> <KEGG_ID>


> <toxTree.tree.cramer.CramerTreeResult>


> <FORMULA>


> <toxTree.tree.cramer.CramerRules>


$$$$
Deoxyadenosine monophosphate
 OpenBabel30120812293D

 22 24  0  0  0  0  0  0  0  0999 V2000
    1.0000    0.0000    0.0000 N   0  0  0  0  0
    2.5000    0.0000    0.0000 C   0  0  0  0  0
    3.2198   -1.1815    0.0025 N   0  0  0  0  0
    4.6102   -1.1577   -0.0102 C   0  0  0  0  0
    5.3097   -0.0535   -0.0126 N   0  0  0  0  0
    4.7290    1.1586   -0.0088 C   0  0  0  0  0
    3.2611    1.2494   -0.0027 C   0  0  0  0  0
    2.9518    2.5299   -0.0002 N   0  0  0  0  0
    4.1342    3.2806   -0.0049 C   0  0  0  0  0
    5.1956    2.4585   -0.0100 N   0  0  0  0  0
    6.6357    2.8781   -0.0160 C   0  0  0  0  0
    6.8785    4.2438    0.6721 C   0  0  0  0  0
    8.3741    4.1587    1.0774 C   0  0  0  0  0
    9.2694    4.5005   -0.0766 O   0  0  0  0  0
    8.5649    2.6917    1.5166 C   0  0  0  0  0
    9.9226    2.1905    1.1223 C   0  0  0  0  0
   10.0772    0.7648    1.5622 O   0  0  0  0  0
   11.4349    0.2636    1.1679 P   0  0  0  0  0
   11.5737    0.3372   -0.3238 O   0  0  0  0  0
   12.5030    1.1164    1.7859 O   0  0  0  0  0
   11.5895   -1.1621    1.6078 O   0  0  0  0  0
    7.4594    1.8779    0.8212 O   0  0  0  0  0
  1  2  1  0  0  0
  2  3  2  0  0  0
  2  7  1  0  0  0
  3  4  1  0  0  0
  4  5  2  0  0  0
  5  6  1  0  0  0
  6 10  1  0  0  0
  6  7  2  0  0  0
  7  8  1  0  0  0
  8  9  2  0  0  0
  9 10  1  0  0  0
 10 11  1  0  0  0
 11 22  1  0  0  0
 11 12  1  0  0  0
 12 13  1  0  0  0
 13 15  1  0  0  0
 13 14  1  0  0  0
 15 22  1  0  0  0
 15 16  1  0  0  0
 16 17  1  0  0  0
 17 18  1  0  0  0
 18 21  2  0  0  0
 18 20  1  0  0  0
 18 19  1  0  0  0
M  END
> <SMILES>
NC3=NC=NC2=C3(N=CN2(C1CC(O)C(COP(O)(O)=O)O1))

> <NAME>
Deoxyadenosine monophosphate

> <BioCyc_link>


> <BioCyc_name_HTML>


> <CAS>


> <KEGG_ID>


> <toxTree.tree.cramer.CramerTreeResult>


> <FORMULA>


> <toxTree.tree.cramer.CramerRules>


$$$$
Deoxyadenosine diphosphate
 OpenBabel30120812293D

 26 28  0  0  0  0  0  0  0  0999 V2000
    1.0000    0.0000    0.0000 N   0  0  0  0  0
    2.5000    0.0000    0.0000 C   0  0  0  0  0
    3.2198   -1.1815    0.0025 N   0  0  0  0  0
    4.6102   -1.1577   -0.0102 C   0  0  0  0  0
    5.3097   -0.0535   -0.0126 N   0  0  0  0  0
    4.7290    1.1586   -0.0088 C   0  0  0  0  0
    3.2611    1.2494   -0.0027 C   0  0  0  0  0
    2.9518    2.5299   -0.0002 N   0  0  0  0  0
    4.1342    3.2806   -0.0049 C   0  0  0  0  0
    5.1956    2.4585   -0.0100 N   0  0  0  0  0
    6.6357    2.8781   -0.0160 C   0  0  0  0  0
    6.8785    4.2438    0.6721 C   0  0  0  0  0
    8.3741    4.1587    1.0774 C   0  0  0  0  0
    9.2694    4.5005   -0.0766 O   0  0  0  0  0
    8.5649    2.6917    1.5166 C   0  0  0  0  0
    9.9226    2.1905    1.1223 C   0  0  0  0  0
   10.0772    0.7648    1.5622 O   0  0  0  0  0
   11.4349    0.2636    1.1679 P   0  0  0  0  0
   11.5737    0.3372   -0.3238 O   0  0  0  0  0
   12.5030    1.1164    1.7859 O   0  0  0  0  0
   11.5895   -1.1621    1.6078 O   0  0  0  0  0
   12.9472   -1.6633    1.2135 P   0  0  0  0  0
   13.0859   -1.5897   -0.2782 O   0  0  0  0  0
   14.0152   -0.8105    1.8315 O   0  0  0  0  0
   13.1018   -3.0890    1.6534 O   0  0  0  0  0
    7.4594    1.8779    0.8212 O   0  0  0  0  0
  1  2  1  0  0  0
  2  3  2  0  0  0
  2  7  1  0  0  0
  3  4  1  0  0  0
  4  5  2  0  0  0
  5  6  1  0  0  0
  6 10  1  0  0  0
  6  7  2  0  0  0
  7  8  1  0  0  0
  8  9  2  0  0  0
  9 10  1  0  0  0
 10 11  1  0  0  0
 11 26  1  0  0  0
 11 12  1  0  0  0
 12 13  1  0  0  0
 13 15  1  0  0  0
 13 14  1  0  0  0
 15 26  1  0  0  0
 15 16  1  0  0  0
 16 17  1  0  0  0
 17 18  1  0  0  0
 18 21  1  0  0  0
 18 20  1  0  0  0
 18 19  2  0  0  0
 21 22  1  0  0  0
 22 25  1  0  0  0
 22 24  1  0  0  0
 22 23  2  0  0  0
M  END
> <SMILES>
NC3=NC=NC2=C3(N=CN2(C1CC(O)C(COP(=O)(O)OP(=O)(O)O)O1))

> <NAME>
Deoxyadenosine diphosphate

> <BioCyc_link>


> <BioCyc_name_HTML>


> <CAS>


> <KEGG_ID>


> <toxTree.tree.cramer.CramerTreeResult>


> <FORMULA>


> <toxTree.tree.cramer.CramerRules>


$$$$
Deoxyadenosine triphosphate
 OpenBabel30120812293D

 30 32  0  0  0  0  0  0  0  0999 V2000
    1.0000    0.0000    0.0000 N   0  0  0  0  0
    2.5000    0.0000    0.0000 C   0  0  0  0  0
    3.2198   -1.1815    0.0025 N   0  0  0  0  0
    4.6102   -1.1577   -0.0102 C   0  0  0  0  0
    5.3097   -0.0535   -0.0126 N   0  0  0  0  0
    4.7290    1.1586   -0.0088 C   0  0  0  0  0
    3.2611    1.2494   -0.0027 C   0  0  0  0  0
    2.9518    2.5299   -0.0002 N   0  0  0  0  0
    4.1342    3.2806   -0.0049 C   0  0  0  0  0
    5.1956    2.4585   -0.0100 N   0  0  0  0  0
    6.6357    2.8781   -0.0160 C   0  0  0  0  0
    6.8785    4.2438    0.6721 C   0  0  0  0  0
    8.3741    4.1587    1.0774 C   0  0  0  0  0
    9.2694    4.5005   -0.0766 O   0  0  0  0  0
    8.5649    2.6917    1.5166 C   0  0  0  0  0
    9.9226    2.1905    1.1223 C   0  0  0  0  0
   10.0772    0.7648    1.5622 O   0  0  0  0  0
   11.4349    0.2636    1.1679 P   0  0  0  0  0
   11.5737    0.3372   -0.3238 O   0  0  0  0  0
   12.5030    1.1164    1.7859 O   0  0  0  0  0
   11.5895   -1.1621    1.6078 O   0  0  0  0  0
   12.9472   -1.6633    1.2135 P   0  0  0  0  0
   13.0859   -1.5897   -0.2782 O   0  0  0  0  0
   14.0152   -0.8105    1.8315 O   0  0  0  0  0
   13.1018   -3.0890    1.6534 O   0  0  0  0  0
   14.4595   -3.5903    1.2591 P   0  0  0  0  0
   14.5982   -3.5167   -0.2326 O   0  0  0  0  0
   15.5275   -2.7374    1.8771 O   0  0  0  0  0
   14.6141   -5.0160    1.6990 O   0  0  0  0  0
    7.4594    1.8779    0.8212 O   0  0  0  0  0
  1  2  1  0  0  0
  2  3  2  0  0  0
  2  7  1  0  0  0
  3  4  1  0  0  0
  4  5  2  0  0  0
  5  6  1  0  0  0
  6 10  1  0  0  0
  6  7  2  0  0  0
  7  8  1  0  0  0
  8  9  2  0  0  0
  9 10  1  0  0  0
 10 11  1  0  0  0
 11 30  1  0  0  0
 11 12  1  0  0  0
 12 13  1  0  0  0
 13 15  1  0  0  0
 13 14  1  0  0  0
 15 30  1  0  0  0
 15 16  1  0  0  0
 16 17  1  0  0  0
 17 18  1  0  0  0
 18 21  1  0  0  0
 18 20  2  0  0  0
 18 19  1  0  0  0
 21 22  1  0  0  0
 22 25  1  0  0  0
 22 24  2  0  0  0
 22 23  1  0  0  0
 25 26  1  0  0  0
 26 29  2  0  0  0
 26 28  1  0  0  0
 26 27  1  0  0  0
M  END
> <SMILES>
NC3=NC=NC2=C3(N=CN2(C1CC(O)C(COP(O)(=O)OP(O)(=O)OP(O)(O)=O)O1))

> <NAME>
Deoxyadenosine triphosphate

> <BioCyc_link>


> <BioCyc_name_HTML>


> <CAS>


> <KEGG_ID>


> <toxTree.tree.cramer.CramerTreeResult>


> <FORMULA>


> <toxTree.tree.cramer.CramerRules>


$$$$
Deoxyguanosine monophosphate
 OpenBabel30120812293D

 23 25  0  0  0  0  0  0  0  0999 V2000
    1.0000    0.0000    0.0000 N   0  0  0  0  0
    2.5000    0.0000    0.0000 C   0  0  0  0  0
    3.1915   -1.2066    0.0000 N   0  0  0  0  0
    4.4961   -1.2868    0.0124 C   0  0  0  0  0
    5.1409   -2.6411    0.0180 O   0  0  0  0  0
    5.2778   -0.1934    0.0202 C   0  0  0  0  0
    6.6414    0.0247    0.0330 N   0  0  0  0  0
    6.8498    1.3510    0.0348 C   0  0  0  0  0
    5.6219    2.0248    0.0232 N   0  0  0  0  0
    5.4434    3.5141    0.0217 C   0  0  0  0  0
    5.6336    4.2939    1.3459 C   0  0  0  0  0
    5.2569    5.7445    0.9429 C   0  0  0  0  0
    3.7702    5.9428    0.9566 O   0  0  0  0  0
    5.8281    5.9024   -0.4819 C   0  0  0  0  0
    4.9255    6.7527   -1.3258 C   0  0  0  0  0
    5.5068    6.8873   -2.7020 O   0  0  0  0  0
    4.6042    7.7376   -3.5460 P   0  0  0  0  0
    3.2577    7.0834   -3.6413 O   0  0  0  0  0
    4.4309    9.0901   -2.9209 O   0  0  0  0  0
    5.1856    7.8721   -4.9222 O   0  0  0  0  0
    5.9466    4.4842   -1.0672 O   0  0  0  0  0
    4.6494    1.1362    0.0137 C   0  0  0  0  0
    3.1879    1.2004   -0.0000 N   0  0  0  0  0
  1  2  1  0  0  0
  2  3  1  0  0  0
  2 23  2  0  0  0
  3  4  1  0  0  0
  4  6  1  0  0  0
  4  5  2  0  0  0
  6  7  1  0  0  0
  6 22  2  0  0  0
  7  8  2  0  0  0
  8  9  1  0  0  0
  9 22  1  0  0  0
  9 10  1  0  0  0
 10 21  1  0  0  0
 10 11  1  0  0  0
 11 12  1  0  0  0
 12 14  1  0  0  0
 12 13  1  0  0  0
 14 21  1  0  0  0
 14 15  1  0  0  0
 15 16  1  0  0  0
 16 17  1  0  0  0
 17 20  1  0  0  0
 17 19  1  0  0  0
 17 18  2  0  0  0
 22 23  1  0  0  0
M  END
> <SMILES>
NC2NC(=O)C=3N=CN(C1CC(O)C(COP(=O)(O)O)O1)C=3(N=2)

> <NAME>
Deoxyguanosine monophosphate

> <BioCyc_link>


> <BioCyc_name_HTML>


> <CAS>


> <KEGG_ID>


> <toxTree.tree.cramer.CramerTreeResult>


> <FORMULA>


> <toxTree.tree.cramer.CramerRules>


$$$$
Deoxyguanosine diphosphate
 OpenBabel30120812293D

 27 29  0  0  0  0  0  0  0  0999 V2000
    1.0000    0.0000    0.0000 N   0  0  0  0  0
    2.5000    0.0000    0.0000 C   0  0  0  0  0
    3.1915   -1.2066    0.0000 N   0  0  0  0  0
    4.4961   -1.2868    0.0124 C   0  0  0  0  0
    5.1409   -2.6411    0.0180 O   0  0  0  0  0
    5.2778   -0.1934    0.0202 C   0  0  0  0  0
    6.6414    0.0247    0.0330 N   0  0  0  0  0
    6.8498    1.3510    0.0348 C   0  0  0  0  0
    5.6219    2.0248    0.0232 N   0  0  0  0  0
    5.4434    3.5141    0.0217 C   0  0  0  0  0
    5.6336    4.2939    1.3459 C   0  0  0  0  0
    5.2569    5.7445    0.9429 C   0  0  0  0  0
    3.7702    5.9428    0.9566 O   0  0  0  0  0
    5.8281    5.9024   -0.4819 C   0  0  0  0  0
    4.9255    6.7527   -1.3258 C   0  0  0  0  0
    5.5068    6.8873   -2.7020 O   0  0  0  0  0
    4.6042    7.7376   -3.5460 P   0  0  0  0  0
    3.2577    7.0834   -3.6413 O   0  0  0  0  0
    4.4309    9.0901   -2.9209 O   0  0  0  0  0
    5.1856    7.8721   -4.9222 O   0  0  0  0  0
    4.2829    8.7224   -5.7661 P   0  0  0  0  0
    2.9364    8.0683   -5.8614 O   0  0  0  0  0
    4.1096   10.0749   -5.1411 O   0  0  0  0  0
    4.8643    8.8569   -7.1423 O   0  0  0  0  0
    5.9466    4.4842   -1.0672 O   0  0  0  0  0
    4.6494    1.1362    0.0137 C   0  0  0  0  0
    3.1879    1.2004   -0.0000 N   0  0  0  0  0
  1  2  1  0  0  0
  2  3  1  0  0  0
  2 27  2  0  0  0
  3  4  1  0  0  0
  4  6  1  0  0  0
  4  5  2  0  0  0
  6  7  1  0  0  0
  6 26  2  0  0  0
  7  8  2  0  0  0
  8  9  1  0  0  0
  9 26  1  0  0  0
  9 10  1  0  0  0
 10 25  1  0  0  0
 10 11  1  0  0  0
 11 12  1  0  0  0
 12 14  1  0  0  0
 12 13  1  0  0  0
 14 25  1  0  0  0
 14 15  1  0  0  0
 15 16  1  0  0  0
 16 17  1  0  0  0
 17 20  1  0  0  0
 17 19  1  0  0  0
 17 18  2  0  0  0
 20 21  1  0  0  0
 21 24  1  0  0  0
 21 23  1  0  0  0
 21 22  2  0  0  0
 26 27  1  0  0  0
M  END
> <SMILES>
NC2NC(=O)C=3N=CN(C1CC(O)C(COP(=O)(O)OP(=O)(O)O)O1)C=3(N=2)

> <NAME>
Deoxyguanosine diphosphate

> <BioCyc_link>


> <BioCyc_name_HTML>


> <CAS>


> <KEGG_ID>


> <toxTree.tree.cramer.CramerTreeResult>


> <FORMULA>


> <toxTree.tree.cramer.CramerRules>


$$$$
Deoxyguanosine triphosphate
 OpenBabel30120812293D

 31 33  0  0  0  0  0  0  0  0999 V2000
    1.0000    0.0000    0.0000 N   0  0  0  0  0
    2.5000    0.0000    0.0000 C   0  0  0  0  0
    3.1915   -1.2066    0.0000 N   0  0  0  0  0
    4.4961   -1.2868    0.0124 C   0  0  0  0  0
    5.1409   -2.6411    0.0180 O   0  0  0  0  0
    5.2778   -0.1934    0.0202 C   0  0  0  0  0
    6.6414    0.0247    0.0330 N   0  0  0  0  0
    6.8498    1.3510    0.0348 C   0  0  0  0  0
    5.6219    2.0248    0.0232 N   0  0  0  0  0
    5.4434    3.5141    0.0217 C   0  0  0  0  0
    5.6336    4.2939    1.3459 C   0  0  0  0  0
    5.2569    5.7445    0.9429 C   0  0  0  0  0
    3.7702    5.9428    0.9566 O   0  0  0  0  0
    5.8281    5.9024   -0.4819 C   0  0  0  0  0
    4.9255    6.7527   -1.3258 C   0  0  0  0  0
    5.5068    6.8873   -2.7020 O   0  0  0  0  0
    4.6042    7.7376   -3.5460 P   0  0  0  0  0
    3.2577    7.0834   -3.6413 O   0  0  0  0  0
    4.4309    9.0901   -2.9209 O   0  0  0  0  0
    5.1856    7.8721   -4.9222 O   0  0  0  0  0
    4.2829    8.7224   -5.7661 P   0  0  0  0  0
    2.9364    8.0683   -5.8614 O   0  0  0  0  0
    4.1096   10.0749   -5.1411 O   0  0  0  0  0
    4.8643    8.8569   -7.1423 O   0  0  0  0  0
    3.9616    9.7072   -7.9863 P   0  0  0  0  0
    2.6152    9.0531   -8.0816 O   0  0  0  0  0
    3.7883   11.0597   -7.3612 O   0  0  0  0  0
    4.5430    9.8418   -9.3625 O   0  0  0  0  0
    5.9466    4.4842   -1.0672 O   0  0  0  0  0
    4.6494    1.1362    0.0137 C   0  0  0  0  0
    3.1879    1.2004   -0.0000 N   0  0  0  0  0
  1  2  1  0  0  0
  2  3  1  0  0  0
  2 31  2  0  0  0
  3  4  1  0  0  0
  4  6  1  0  0  0
  4  5  2  0  0  0
  6  7  1  0  0  0
  6 30  2  0  0  0
  7  8  2  0  0  0
  8  9  1  0  0  0
  9 30  1  0  0  0
  9 10  1  0  0  0
 10 29  1  0  0  0
 10 11  1  0  0  0
 11 12  1  0  0  0
 12 14  1  0  0  0
 12 13  1  0  0  0
 14 29  1  0  0  0
 14 15  1  0  0  0
 15 16  1  0  0  0
 16 17  1  0  0  0
 17 20  1  0  0  0
 17 19  1  0  0  0
 17 18  2  0  0  0
 20 21  1  0  0  0
 21 24  1  0  0  0
 21 23  1  0  0  0
 21 22  2  0  0  0
 24 25  1  0  0  0
 25 28  1  0  0  0
 25 27  2  0  0  0
 25 26  1  0  0  0
 30 31  1  0  0  0
M  END
> <SMILES>
NC2NC(=O)C=3N=CN(C1CC(O)C(COP(=O)(O)OP(=O)(O)OP(O)(=O)O)O1)C=3(N=2)

> <NAME>
Deoxyguanosine triphosphate

> <BioCyc_link>


> <BioCyc_name_HTML>


> <CAS>


> <KEGG_ID>


> <toxTree.tree.cramer.CramerTreeResult>


> <FORMULA>


> <toxTree.tree.cramer.CramerRules>


$$$$
Deoxythymidine monophosphate
 OpenBabel30120812293D

 21 22  0  0  0  0  0  0  0  0999 V2000
    1.0000    0.0000    0.0000 C   0  0  0  0  0
    2.5000    0.0000    0.0000 C   0  0  0  0  0
    3.1879   -1.1952   -0.0000 C   0  0  0  0  0
    4.5842   -1.1944    0.0121 N   0  0  0  0  0
    5.2744    0.0187    0.0181 C   0  0  0  0  0
    6.7743    0.0301    0.0312 O   0  0  0  0  0
    4.5744    1.2069    0.0121 N   0  0  0  0  0
    3.1903    1.1993    0.0000 C   0  0  0  0  0
    2.4359    2.4957   -0.0131 O   0  0  0  0  0
    5.3386   -2.4909    0.0187 C   0  0  0  0  0
    5.9127   -2.7178    1.4387 C   0  0  0  0  0
    6.4366   -4.1767    1.3640 C   0  0  0  0  0
    7.7942   -4.2339    0.7287 O   0  0  0  0  0
    5.3869   -4.9129    0.5054 C   0  0  0  0  0
    6.0404   -5.9453   -0.3648 C   0  0  0  0  0
    4.9960   -6.6422   -1.1855 O   0  0  0  0  0
    5.6495   -7.6745   -2.0556 P   0  0  0  0  0
    6.6274   -7.0000   -2.9715 O   0  0  0  0  0
    6.3956   -8.6666   -1.2135 O   0  0  0  0  0
    4.6051   -8.3714   -2.8763 O   0  0  0  0  0
    4.6889   -3.8407   -0.3498 O   0  0  0  0  0
  1  2  1  0  0  0
  2  8  1  0  0  0
  2  3  2  0  0  0
  3  4  1  0  0  0
  4  5  1  0  0  0
  4 10  1  0  0  0
  5  7  1  0  0  0
  5  6  2  0  0  0
  7  8  1  0  0  0
  8  9  2  0  0  0
 10 21  1  0  0  0
 10 11  1  0  0  0
 11 12  1  0  0  0
 12 14  1  0  0  0
 12 13  1  0  0  0
 14 21  1  0  0  0
 14 15  1  0  0  0
 15 16  1  0  0  0
 16 17  1  0  0  0
 17 20  2  0  0  0
 17 19  1  0  0  0
 17 18  1  0  0  0
M  END
> <SMILES>
CC1=CN(C(=O)NC1(=O))C2CC(O)C(COP(O)(O)=O)O2

> <NAME>
Deoxythymidine monophosphate

> <BioCyc_link>


> <BioCyc_name_HTML>


> <CAS>


> <KEGG_ID>


> <toxTree.tree.cramer.CramerTreeResult>


> <FORMULA>


> <toxTree.tree.cramer.CramerRules>


$$$$
Deoxythymidine diphosphate
 OpenBabel30120812293D

 25 26  0  0  0  0  0  0  0  0999 V2000
    1.0000    0.0000    0.0000 C   0  0  0  0  0
    2.5000    0.0000    0.0000 C   0  0  0  0  0
    3.1879   -1.1952   -0.0000 C   0  0  0  0  0
    4.5842   -1.1944    0.0121 N   0  0  0  0  0
    5.2744    0.0187    0.0181 C   0  0  0  0  0
    6.7743    0.0301    0.0312 O   0  0  0  0  0
    4.5744    1.2069    0.0121 N   0  0  0  0  0
    3.1903    1.1993    0.0000 C   0  0  0  0  0
    2.4359    2.4957   -0.0131 O   0  0  0  0  0
    5.3386   -2.4909    0.0187 C   0  0  0  0  0
    5.9127   -2.7178    1.4387 C   0  0  0  0  0
    6.4366   -4.1767    1.3640 C   0  0  0  0  0
    7.7942   -4.2339    0.7287 O   0  0  0  0  0
    5.3869   -4.9129    0.5054 C   0  0  0  0  0
    6.0404   -5.9453   -0.3648 C   0  0  0  0  0
    4.9960   -6.6422   -1.1855 O   0  0  0  0  0
    5.6495   -7.6745   -2.0556 P   0  0  0  0  0
    6.6274   -7.0000   -2.9715 O   0  0  0  0  0
    6.3956   -8.6666   -1.2135 O   0  0  0  0  0
    4.6051   -8.3714   -2.8763 O   0  0  0  0  0
    5.2586   -9.4038   -3.7465 P   0  0  0  0  0
    6.2365   -8.7293   -4.6624 O   0  0  0  0  0
    6.0047  -10.3959   -2.9044 O   0  0  0  0  0
    4.2143  -10.1007   -4.5672 O   0  0  0  0  0
    4.6889   -3.8407   -0.3498 O   0  0  0  0  0
  1  2  1  0  0  0
  2  8  1  0  0  0
  2  3  2  0  0  0
  3  4  1  0  0  0
  4  5  1  0  0  0
  4 10  1  0  0  0
  5  7  1  0  0  0
  5  6  2  0  0  0
  7  8  1  0  0  0
  8  9  2  0  0  0
 10 25  1  0  0  0
 10 11  1  0  0  0
 11 12  1  0  0  0
 12 14  1  0  0  0
 12 13  1  0  0  0
 14 25  1  0  0  0
 14 15  1  0  0  0
 15 16  1  0  0  0
 16 17  1  0  0  0
 17 20  1  0  0  0
 17 19  1  0  0  0
 17 18  2  0  0  0
 20 21  1  0  0  0
 21 24  1  0  0  0
 21 23  1  0  0  0
 21 22  2  0  0  0
M  END
> <SMILES>
CC1=CN(C(=O)NC1(=O))C2CC(O)C(COP(=O)(O)OP(=O)(O)O)O2

> <NAME>
Deoxythymidine diphosphate

> <BioCyc_link>


> <BioCyc_name_HTML>


> <CAS>


> <KEGG_ID>


> <toxTree.tree.cramer.CramerTreeResult>


> <FORMULA>


> <toxTree.tree.cramer.CramerRules>


$$$$
Deoxythymidine triphosphate
 OpenBabel30120812293D

 29 30  0  0  0  0  0  0  0  0999 V2000
    1.0000    0.0000    0.0000 C   0  0  0  0  0
    2.5000    0.0000    0.0000 C   0  0  0  0  0
    3.1879   -1.1952   -0.0000 C   0  0  0  0  0
    4.5842   -1.1944    0.0121 N   0  0  0  0  0
    5.2744    0.0187    0.0181 C   0  0  0  0  0
    6.7743    0.0301    0.0312 O   0  0  0  0  0
    4.5744    1.2069    0.0121 N   0  0  0  0  0
    3.1903    1.1993    0.0000 C   0  0  0  0  0
    2.4359    2.4957   -0.0131 O   0  0  0  0  0
    5.3386   -2.4909    0.0187 C   0  0  0  0  0
    5.9127   -2.7178    1.4387 C   0  0  0  0  0
    6.4366   -4.1767    1.3640 C   0  0  0  0  0
    7.7942   -4.2339    0.7287 O   0  0  0  0  0
    5.3869   -4.9129    0.5054 C   0  0  0  0  0
    6.0404   -5.9453   -0.3648 C   0  0  0  0  0
    4.9960   -6.6422   -1.1855 O   0  0  0  0  0
    5.6495   -7.6745   -2.0556 P   0  0  0  0  0
    6.6274   -7.0000   -2.9715 O   0  0  0  0  0
    6.3956   -8.6666   -1.2135 O   0  0  0  0  0
    4.6051   -8.3714   -2.8763 O   0  0  0  0  0
    5.2586   -9.4038   -3.7465 P   0  0  0  0  0
    6.2365   -8.7293   -4.6624 O   0  0  0  0  0
    6.0047  -10.3959   -2.9044 O   0  0  0  0  0
    4.2143  -10.1007   -4.5672 O   0  0  0  0  0
    4.8678  -11.1330   -5.4374 P   0  0  0  0  0
    5.8456  -10.4585   -6.3532 O   0  0  0  0  0
    5.6138  -12.1251   -4.5952 O   0  0  0  0  0
    3.8234  -11.8299   -6.2581 O   0  0  0  0  0
    4.6889   -3.8407   -0.3498 O   0  0  0  0  0
  1  2  1  0  0  0
  2  8  1  0  0  0
  2  3  2  0  0  0
  3  4  1  0  0  0
  4  5  1  0  0  0
  4 10  1  0  0  0
  5  7  1  0  0  0
  5  6  2  0  0  0
  7  8  1  0  0  0
  8  9  2  0  0  0
 10 29  1  0  0  0
 10 11  1  0  0  0
 11 12  1  0  0  0
 12 14  1  0  0  0
 12 13  1  0  0  0
 14 29  1  0  0  0
 14 15  1  0  0  0
 15 16  1  0  0  0
 16 17  1  0  0  0
 17 20  1  0  0  0
 17 19  1  0  0  0
 17 18  2  0  0  0
 20 21  1  0  0  0
 21 24  1  0  0  0
 21 23  1  0  0  0
 21 22  2  0  0  0
 24 25  1  0  0  0
 25 28  1  0  0  0
 25 27  2  0  0  0
 25 26  1  0  0  0
M  END
> <SMILES>
CC1=CN(C(=O)NC1(=O))C2CC(O)C(COP(=O)(O)OP(=O)(O)OP(O)(=O)O)O2

> <NAME>
Deoxythymidine triphosphate

> <BioCyc_link>


> <BioCyc_name_HTML>


> <CAS>


> <KEGG_ID>


> <toxTree.tree.cramer.CramerTreeResult>


> <FORMULA>


> <toxTree.tree.cramer.CramerRules>


$$$$
Deoxyuridine monophosphate
 OpenBabel30120812293D

 20 21  0  0  0  0  0  0  0  0999 V2000
    1.0000    0.0000    0.0000 O   0  0  0  0  0
    2.5000    0.0000    0.0000 C   0  0  0  0  0
    3.1879   -1.1952   -0.0000 C   0  0  0  0  0
    4.5842   -1.1944    0.0121 C   0  0  0  0  0
    5.2744    0.0187    0.0181 N   0  0  0  0  0
    4.5744    1.2069    0.0121 C   0  0  0  0  0
    5.3151    2.5113    0.0185 O   0  0  0  0  0
    3.1903    1.1993    0.0000 N   0  0  0  0  0
    6.7743    0.0301    0.0312 C   0  0  0  0  0
    7.3192    1.2538    0.8079 C   0  0  0  0  0
    8.7498    0.7976    1.1999 C   0  0  0  0  0
    9.7127    0.9980    0.0673 O   0  0  0  0  0
    8.5907   -0.6993    1.5392 C   0  0  0  0  0
    9.7997   -1.4745    1.1062 C   0  0  0  0  0
    9.6149   -2.9231    1.4491 O   0  0  0  0  0
   10.8239   -3.6983    1.0162 P   0  0  0  0  0
   10.9925   -3.5605   -0.4680 O   0  0  0  0  0
   12.0535   -3.1591    1.6849 O   0  0  0  0  0
   10.6391   -5.1468    1.3591 O   0  0  0  0  0
    7.3345   -1.1869    0.7960 O   0  0  0  0  0
  1  2  2  0  0  0
  2  8  1  0  0  0
  2  3  1  0  0  0
  3  4  2  0  0  0
  4  5  1  0  0  0
  5  6  1  0  0  0
  5  9  1  0  0  0
  6  8  1  0  0  0
  6  7  2  0  0  0
  9 20  1  0  0  0
  9 10  1  0  0  0
 10 11  1  0  0  0
 11 13  1  0  0  0
 11 12  1  0  0  0
 13 20  1  0  0  0
 13 14  1  0  0  0
 14 15  1  0  0  0
 15 16  1  0  0  0
 16 19  2  0  0  0
 16 18  1  0  0  0
 16 17  1  0  0  0
M  END
> <SMILES>
O=C1C=CN(C(=O)N1)C2CC(O)C(COP(O)(O)=O)O2

> <NAME>
Deoxyuridine monophosphate

> <BioCyc_link>


> <BioCyc_name_HTML>


> <CAS>


> <KEGG_ID>


> <toxTree.tree.cramer.CramerTreeResult>


> <FORMULA>


> <toxTree.tree.cramer.CramerRules>


$$$$
Deoxyuridine diphosphate
 OpenBabel30120812293D

 24 25  0  0  0  0  0  0  0  0999 V2000
    1.0000    0.0000    0.0000 O   0  0  0  0  0
    2.5000    0.0000    0.0000 C   0  0  0  0  0
    3.1879   -1.1952   -0.0000 C   0  0  0  0  0
    4.5842   -1.1944    0.0121 C   0  0  0  0  0
    5.2744    0.0187    0.0181 N   0  0  0  0  0
    4.5744    1.2069    0.0121 C   0  0  0  0  0
    5.3151    2.5113    0.0185 O   0  0  0  0  0
    3.1903    1.1993    0.0000 N   0  0  0  0  0
    6.7743    0.0301    0.0312 C   0  0  0  0  0
    7.3192    1.2538    0.8079 C   0  0  0  0  0
    8.7498    0.7976    1.1999 C   0  0  0  0  0
    9.7127    0.9980    0.0673 O   0  0  0  0  0
    8.5907   -0.6993    1.5392 C   0  0  0  0  0
    9.7997   -1.4745    1.1062 C   0  0  0  0  0
    9.6149   -2.9231    1.4491 O   0  0  0  0  0
   10.8239   -3.6983    1.0162 P   0  0  0  0  0
   10.9925   -3.5605   -0.4680 O   0  0  0  0  0
   12.0535   -3.1591    1.6849 O   0  0  0  0  0
   10.6391   -5.1468    1.3591 O   0  0  0  0  0
   11.8480   -5.9220    0.9261 P   0  0  0  0  0
   12.0166   -5.7843   -0.5580 O   0  0  0  0  0
   13.0776   -5.3828    1.5949 O   0  0  0  0  0
   11.6632   -7.3706    1.2690 O   0  0  0  0  0
    7.3345   -1.1869    0.7960 O   0  0  0  0  0
  1  2  2  0  0  0
  2  8  1  0  0  0
  2  3  1  0  0  0
  3  4  2  0  0  0
  4  5  1  0  0  0
  5  6  1  0  0  0
  5  9  1  0  0  0
  6  8  1  0  0  0
  6  7  2  0  0  0
  9 24  1  0  0  0
  9 10  1  0  0  0
 10 11  1  0  0  0
 11 13  1  0  0  0
 11 12  1  0  0  0
 13 24  1  0  0  0
 13 14  1  0  0  0
 14 15  1  0  0  0
 15 16  1  0  0  0
 16 19  1  0  0  0
 16 18  1  0  0  0
 16 17  2  0  0  0
 19 20  1  0  0  0
 20 23  1  0  0  0
 20 22  1  0  0  0
 20 21  2  0  0  0
M  END
> <SMILES>
O=C1C=CN(C(=O)N1)C2CC(O)C(COP(=O)(O)OP(=O)(O)O)O2

> <NAME>
Deoxyuridine diphosphate

> <BioCyc_link>


> <BioCyc_name_HTML>


> <CAS>


> <KEGG_ID>


> <toxTree.tree.cramer.CramerTreeResult>


> <FORMULA>


> <toxTree.tree.cramer.CramerRules>


$$$$
Deoxyuridine triphosphate
 OpenBabel30120812293D

 28 29  0  0  0  0  0  0  0  0999 V2000
    1.0000    0.0000    0.0000 O   0  0  0  0  0
    2.5000    0.0000    0.0000 C   0  0  0  0  0
    3.1879   -1.1952   -0.0000 C   0  0  0  0  0
    4.5842   -1.1944    0.0121 C   0  0  0  0  0
    5.2744    0.0187    0.0181 N   0  0  0  0  0
    4.5744    1.2069    0.0121 C   0  0  0  0  0
    5.3151    2.5113    0.0185 O   0  0  0  0  0
    3.1903    1.1993    0.0000 N   0  0  0  0  0
    6.7743    0.0301    0.0312 C   0  0  0  0  0
    7.3192    1.2538    0.8079 C   0  0  0  0  0
    8.7498    0.7976    1.1999 C   0  0  0  0  0
    9.7127    0.9980    0.0673 O   0  0  0  0  0
    8.5907   -0.6993    1.5392 C   0  0  0  0  0
    9.7997   -1.4745    1.1062 C   0  0  0  0  0
    9.6149   -2.9231    1.4491 O   0  0  0  0  0
   10.8239   -3.6983    1.0162 P   0  0  0  0  0
   10.9925   -3.5605   -0.4680 O   0  0  0  0  0
   12.0535   -3.1591    1.6849 O   0  0  0  0  0
   10.6391   -5.1468    1.3591 O   0  0  0  0  0
   11.8480   -5.9220    0.9261 P   0  0  0  0  0
   12.0166   -5.7843   -0.5580 O   0  0  0  0  0
   13.0776   -5.3828    1.5949 O   0  0  0  0  0
   11.6632   -7.3706    1.2690 O   0  0  0  0  0
   12.8722   -8.1458    0.8360 P   0  0  0  0  0
   13.0408   -8.0080   -0.6481 O   0  0  0  0  0
   14.1018   -7.6066    1.5048 O   0  0  0  0  0
   12.6874   -9.5943    1.1789 O   0  0  0  0  0
    7.3345   -1.1869    0.7960 O   0  0  0  0  0
  1  2  2  0  0  0
  2  8  1  0  0  0
  2  3  1  0  0  0
  3  4  2  0  0  0
  4  5  1  0  0  0
  5  6  1  0  0  0
  5  9  1  0  0  0
  6  8  1  0  0  0
  6  7  2  0  0  0
  9 28  1  0  0  0
  9 10  1  0  0  0
 10 11  1  0  0  0
 11 13  1  0  0  0
 11 12  1  0  0  0
 13 28  1  0  0  0
 13 14  1  0  0  0
 14 15  1  0  0  0
 15 16  1  0  0  0
 16 19  1  0  0  0
 16 18  1  0  0  0
 16 17  2  0  0  0
 19 20  1  0  0  0
 20 23  1  0  0  0
 20 22  1  0  0  0
 20 21  2  0  0  0
 23 24  1  0  0  0
 24 27  1  0  0  0
 24 26  1  0  0  0
 24 25  2  0  0  0
M  END
> <SMILES>
O=C1C=CN(C(=O)N1)C2CC(O)C(COP(=O)(O)OP(=O)(O)OP(=O)(O)O)O2

> <NAME>
Deoxyuridine triphosphate

> <BioCyc_link>


> <BioCyc_name_HTML>


> <CAS>


> <KEGG_ID>


> <toxTree.tree.cramer.CramerTreeResult>


> <FORMULA>


> <toxTree.tree.cramer.CramerRules>


$$$$
Deoxycytidine monophosphate
 OpenBabel30120812293D

 20 21  0  0  0  0  0  0  0  0999 V2000
    1.0000    0.0000    0.0000 N   0  0  0  0  0
    2.5000    0.0000    0.0000 C   0  0  0  0  0
    3.1879   -1.1952   -0.0000 C   0  0  0  0  0
    4.5842   -1.1944    0.0121 C   0  0  0  0  0
    5.2744    0.0187    0.0181 N   0  0  0  0  0
    4.5744    1.2069    0.0121 C   0  0  0  0  0
    5.3151    2.5113    0.0185 O   0  0  0  0  0
    3.1903    1.1993    0.0000 N   0  0  0  0  0
    6.7743    0.0301    0.0312 C   0  0  0  0  0
    7.3192    1.2538    0.8079 C   0  0  0  0  0
    8.7498    0.7976    1.1999 C   0  0  0  0  0
    9.7127    0.9980    0.0673 O   0  0  0  0  0
    8.5907   -0.6993    1.5392 C   0  0  0  0  0
    9.7997   -1.4745    1.1062 C   0  0  0  0  0
    9.6149   -2.9231    1.4491 O   0  0  0  0  0
   10.8239   -3.6983    1.0162 P   0  0  0  0  0
   10.9925   -3.5605   -0.4680 O   0  0  0  0  0
   12.0535   -3.1591    1.6849 O   0  0  0  0  0
   10.6391   -5.1468    1.3591 O   0  0  0  0  0
    7.3345   -1.1869    0.7960 O   0  0  0  0  0
  1  2  1  0  0  0
  2  8  2  0  0  0
  2  3  1  0  0  0
  3  4  2  0  0  0
  4  5  1  0  0  0
  5  6  1  0  0  0
  5  9  1  0  0  0
  6  8  1  0  0  0
  6  7  2  0  0  0
  9 20  1  0  0  0
  9 10  1  0  0  0
 10 11  1  0  0  0
 11 13  1  0  0  0
 11 12  1  0  0  0
 13 20  1  0  0  0
 13 14  1  0  0  0
 14 15  1  0  0  0
 15 16  1  0  0  0
 16 19  2  0  0  0
 16 18  1  0  0  0
 16 17  1  0  0  0
M  END
> <SMILES>
NC=1C=CN(C(=O)N=1)C2CC(O)C(COP(O)(O)=O)O2

> <NAME>
Deoxycytidine monophosphate

> <BioCyc_link>


> <BioCyc_name_HTML>


> <CAS>


> <KEGG_ID>


> <toxTree.tree.cramer.CramerTreeResult>


> <FORMULA>


> <toxTree.tree.cramer.CramerRules>


$$$$
Deoxycytidine diphosphate
 OpenBabel30120812293D

 24 25  0  0  0  0  0  0  0  0999 V2000
    1.0000    0.0000    0.0000 N   0  0  0  0  0
    2.5000    0.0000    0.0000 C   0  0  0  0  0
    3.1879   -1.1952   -0.0000 C   0  0  0  0  0
    4.5842   -1.1944    0.0121 C   0  0  0  0  0
    5.2744    0.0187    0.0181 N   0  0  0  0  0
    4.5744    1.2069    0.0121 C   0  0  0  0  0
    5.3151    2.5113    0.0185 O   0  0  0  0  0
    3.1903    1.1993    0.0000 N   0  0  0  0  0
    6.7743    0.0301    0.0312 C   0  0  0  0  0
    7.3192    1.2538    0.8079 C   0  0  0  0  0
    8.7498    0.7976    1.1999 C   0  0  0  0  0
    9.7127    0.9980    0.0673 O   0  0  0  0  0
    8.5907   -0.6993    1.5392 C   0  0  0  0  0
    9.7997   -1.4745    1.1062 C   0  0  0  0  0
    9.6149   -2.9231    1.4491 O   0  0  0  0  0
   10.8239   -3.6983    1.0162 P   0  0  0  0  0
   10.9925   -3.5605   -0.4680 O   0  0  0  0  0
   12.0535   -3.1591    1.6849 O   0  0  0  0  0
   10.6391   -5.1468    1.3591 O   0  0  0  0  0
   11.8480   -5.9220    0.9261 P   0  0  0  0  0
   12.0166   -5.7843   -0.5580 O   0  0  0  0  0
   13.0776   -5.3828    1.5949 O   0  0  0  0  0
   11.6632   -7.3706    1.2690 O   0  0  0  0  0
    7.3345   -1.1869    0.7960 O   0  0  0  0  0
  1  2  1  0  0  0
  2  8  2  0  0  0
  2  3  1  0  0  0
  3  4  2  0  0  0
  4  5  1  0  0  0
  5  6  1  0  0  0
  5  9  1  0  0  0
  6  8  1  0  0  0
  6  7  2  0  0  0
  9 24  1  0  0  0
  9 10  1  0  0  0
 10 11  1  0  0  0
 11 13  1  0  0  0
 11 12  1  0  0  0
 13 24  1  0  0  0
 13 14  1  0  0  0
 14 15  1  0  0  0
 15 16  1  0  0  0
 16 19  1  0  0  0
 16 18  1  0  0  0
 16 17  2  0  0  0
 19 20  1  0  0  0
 20 23  1  0  0  0
 20 22  1  0  0  0
 20 21  2  0  0  0
M  END
> <SMILES>
NC=1C=CN(C(=O)N=1)C2CC(O)C(COP(=O)(O)OP(=O)(O)O)O2

> <NAME>
Deoxycytidine diphosphate

> <BioCyc_link>


> <BioCyc_name_HTML>


> <CAS>


> <KEGG_ID>


> <toxTree.tree.cramer.CramerTreeResult>


> <FORMULA>


> <toxTree.tree.cramer.CramerRules>


$$$$
Deoxycytidine triphosphate
 OpenBabel30120812293D

 28 29  0  0  0  0  0  0  0  0999 V2000
    1.0000    0.0000    0.0000 N   0  0  0  0  0
    2.5000    0.0000    0.0000 C   0  0  0  0  0
    3.1879   -1.1952   -0.0000 C   0  0  0  0  0
    4.5842   -1.1944    0.0121 C   0  0  0  0  0
    5.2744    0.0187    0.0181 N   0  0  0  0  0
    4.5744    1.2069    0.0121 C   0  0  0  0  0
    5.3151    2.5113    0.0185 O   0  0  0  0  0
    3.1903    1.1993    0.0000 N   0  0  0  0  0
    6.7743    0.0301    0.0312 C   0  0  0  0  0
    7.3192    1.2538    0.8079 C   0  0  0  0  0
    8.7498    0.7976    1.1999 C   0  0  0  0  0
    9.7127    0.9980    0.0673 O   0  0  0  0  0
    8.5907   -0.6993    1.5392 C   0  0  0  0  0
    9.7997   -1.4745    1.1062 C   0  0  0  0  0
    9.6149   -2.9231    1.4491 O   0  0  0  0  0
   10.8239   -3.6983    1.0162 P   0  0  0  0  0
   10.9925   -3.5605   -0.4680 O   0  0  0  0  0
   12.0535   -3.1591    1.6849 O   0  0  0  0  0
   10.6391   -5.1468    1.3591 O   0  0  0  0  0
   11.8480   -5.9220    0.9261 P   0  0  0  0  0
   12.0166   -5.7843   -0.5580 O   0  0  0  0  0
   13.0776   -5.3828    1.5949 O   0  0  0  0  0
   11.6632   -7.3706    1.2690 O   0  0  0  0  0
   12.8722   -8.1458    0.8360 P   0  0  0  0  0
   13.0408   -8.0080   -0.6481 O   0  0  0  0  0
   14.1018   -7.6066    1.5048 O   0  0  0  0  0
   12.6874   -9.5943    1.1789 O   0  0  0  0  0
    7.3345   -1.1869    0.7960 O   0  0  0  0  0
  1  2  1  0  0  0
  2  8  2  0  0  0
  2  3  1  0  0  0
  3  4  2  0  0  0
  4  5  1  0  0  0
  5  6  1  0  0  0
  5  9  1  0  0  0
  6  8  1  0  0  0
  6  7  2  0  0  0
  9 28  1  0  0  0
  9 10  1  0  0  0
 10 11  1  0  0  0
 11 13  1  0  0  0
 11 12  1  0  0  0
 13 28  1  0  0  0
 13 14  1  0  0  0
 14 15  1  0  0  0
 15 16  1  0  0  0
 16 19  1  0  0  0
 16 18  1  0  0  0
 16 17  2  0  0  0
 19 20  1  0  0  0
 20 23  1  0  0  0
 20 22  1  0  0  0
 20 21  2  0  0  0
 23 24  1  0  0  0
 24 27  1  0  0  0
 24 26  1  0  0  0
 24 25  2  0  0  0
M  END
> <SMILES>
NC=1C=CN(C(=O)N=1)C2CC(O)C(COP(=O)(O)OP(=O)(O)OP(=O)(O)O)O2

> <NAME>
Deoxycytidine triphosphate

> <BioCyc_link>


> <BioCyc_name_HTML>


> <CAS>


> <KEGG_ID>


> <toxTree.tree.cramer.CramerTreeResult>


> <FORMULA>


> <toxTree.tree.cramer.CramerRules>


$$$$
PREPHENATE
 OpenBabel30120812293D

 16 16  0  0  0  0  0  0  0  0999 V2000
    1.0000    0.0000    0.0000 O   0  0  0  0  0
    2.5000    0.0000    0.0000 C   0  0  0  0  0
    2.9387    1.2023    0.5383 C   0  0  0  0  0
    3.4725    1.2506    1.7383 C   0  0  0  0  0
    3.6355    0.0200    2.5828 C   0  0  0  0  0
    3.4825   -1.2232    1.7560 C   0  0  0  0  0
    2.9316   -1.1840    0.5274 C   0  0  0  0  0
    2.5620    0.0231    3.6305 C   0  0  0  0  0
    1.2161    0.0130    2.9684 C   0  0  0  0  0
    1.1166    0.0020    1.4717 O   0  0  0  0  0
   -0.0303    0.0139    3.8029 C   0  0  0  0  0
    0.0692    0.0248    5.2996 O   0  0  0  0  0
   -1.3762    0.0038    3.1408 O   0  0  0  0  0
    4.9789    0.0302    3.2500 C   0  0  0  0  0
    5.9238    1.1714    3.0163 O   0  0  0  0  0
    5.3774   -1.1010    4.1510 O   0  0  0  0  0
  1  2  1  0  0  0
  2  7  1  0  0  0
  2  3  1  0  0  0
  3  4  2  0  0  0
  4  5  1  0  0  0
  5  6  1  0  0  0
  5 14  1  0  0  0
  5  8  1  0  0  0
  6  7  2  0  0  0
  8  9  1  0  0  0
  9 11  1  0  0  0
  9 10  2  0  0  0
 11 13  1  0  0  0
 11 12  2  0  0  0
 14 16  1  0  0  0
 14 15  2  0  0  0
M  END
> <SMILES>
OC1C=CC(C=C1)(CC(=O)C(=O)O)C(=O)O

> <NAME>
PREPHENATE

> <BioCyc_link>
http://biocyc.org/HUMAN/NEW-IMAGE?object=PREPHENATE

> <BioCyc_name_HTML>
prephenate

> <CAS>
126-49-8

> <KEGG_ID>
C00254

> <toxTree.tree.cramer.CramerTreeResult>


> <FORMULA>


> <toxTree.tree.cramer.CramerRules>


$$$$
CPD-266
 OpenBabel30120812293D

 36 39  0  0  0  0  0  0  0  0999 V2000
    1.0000    0.0000    0.0000 H   0  0  0  0  0
    2.5000    0.0000    0.0000 C   0  0  0  0  0
    2.9437    0.1766    1.4219 O   0  0  0  0  0
    3.0170   -1.2585   -0.5474 C   0  0  0  0  0
    2.5346   -1.6055   -1.8585 C   0  0  0  0  0
    2.4381   -0.5596   -2.8617 C   0  0  0  0  0
    3.1237    0.2061   -1.7691 C   0  0  0  0  0
    2.4900    0.7902   -2.5859 C   0  0  0  0  0
    3.1402    1.3451   -1.0384 C   0  0  0  0  0
    2.0324    1.7142   -3.4744 C   0  0  0  0  0
    1.4404    1.2838   -4.7916 C   0  0  0  0  0
    1.6048    2.3804   -5.8017 H   0  0  0  0  0
   -0.0266    1.0097   -4.6408 O   0  0  0  0  0
    2.1707    0.0285   -5.2708 C   0  0  0  0  0
    2.4142   -0.0719   -6.7475 H   0  0  0  0  0
    2.2508   -0.9628   -4.1447 C   0  0  0  0  0
    2.0371   -2.2696   -4.8494 H   0  0  0  0  0
    2.8425    1.2541   -1.9256 C   0  0  0  0  0
    1.9599   -1.0475   -3.4254 C   0  0  0  0  0
    2.7875   -1.2301   -2.1510 C   0  0  0  0  0
    3.5681   -2.1313   -1.2408 C   0  0  0  0  0
    2.3889   -0.8546   -3.5529 C   0  0  0  0  0
    2.8917   -0.8618   -4.9662 H   0  0  0  0  0
    2.6302    0.3473   -1.4075 C   0  0  0  0  0
    2.4794   -1.0538   -2.0259 C   0  0  0  0  0
    2.5163   -0.0573   -1.2035 C   0  0  0  0  0
    2.4810    0.7801    0.0405 H   0  0  0  0  0
    1.1712   -1.2004   -4.3576 C   0  0  0  0  0
    0.2680   -2.0714   -3.5357 H   0  0  0  0  0
    0.4215    0.0454   -4.7264 C   0  0  0  0  0
    1.5824   -1.9441   -5.5937 C   0  0  0  0  0
    0.3646   -2.2899   -6.3984 C   0  0  0  0  0
    0.7758   -3.0336   -7.6344 C   0  0  0  0  0
   -0.4419   -3.3793   -8.4391 C   0  0  0  0  0
   -1.1917   -2.1336   -8.8079 C   0  0  0  0  0
   -0.0307   -4.1230   -9.6752 C   0  0  0  0  0
  1  2  1  0  0  0
  2  9  1  0  0  0
  2  4  1  0  0  0
  2  3  1  0  0  0
  4  5  1  0  0  0
  5  6  1  0  0  0
  6  8  1  0  0  0
  6 16  1  0  0  0
  6  7  1  0  0  0
  8 10  2  0  0  0
  8  9  1  0  0  0
 10 11  1  0  0  0
 11 14  1  0  0  0
 11 13  1  0  0  0
 11 12  1  0  0  0
 14 16  1  0  0  0
 14 26  1  0  0  0
 14 15  1  0  0  0
 16 18  1  0  0  0
 16 17  1  0  0  0
 18 19  1  0  0  0
 19 20  1  0  0  0
 20 26  1  0  0  0
 20 22  1  0  0  0
 20 21  1  0  0  0
 22 24  1  0  0  0
 22 28  1  0  0  0
 22 23  1  0  0  0
 24 25  1  0  0  0
 25 26  1  0  0  0
 26 27  1  0  0  0
 28 31  1  0  0  0
 28 30  1  0  0  0
 28 29  1  0  0  0
 31 32  1  0  0  0
 32 33  1  0  0  0
 33 34  1  0  0  0
 34 36  1  0  0  0
 34 35  1  0  0  0
M  END
> <SMILES>
[H]C1(O)(CCC4(C)(C(C1)=CC([H])(O)C3([H])(C4([H])(CCC2(C)(C([H])(CCC23([H]))C([H])(C)CCCC(C)C)))))

> <NAME>
CPD-266

> <BioCyc_link>
http://biocyc.org/HUMAN/NEW-IMAGE?object=CPD-266

> <BioCyc_name_HTML>
7&alpha;-hydroxycholesterol

> <CAS>


> <KEGG_ID>
C03594

> <toxTree.tree.cramer.CramerTreeResult>


> <FORMULA>


> <toxTree.tree.cramer.CramerRules>


$$$$
5-BETA-CHOLESTANE-3-ALPHA7-ALPHA12-ALP
 OpenBabel30120812293D

 39 42  0  0  0  0  0  0  0  0999 V2000
    1.0000    0.0000    0.0000 H   0  0  0  0  0
    2.5000    0.0000    0.0000 C   0  0  0  0  0
    3.1238    0.3133    1.3277 O   0  0  0  0  0
    2.9807   -1.3990   -0.2815 C   0  0  0  0  0
    1.9559   -2.1293   -1.1104 C   0  0  0  0  0
    2.1637   -2.2575   -2.4536 C   0  0  0  0  0
    3.0905   -2.8404   -3.4789 C   0  0  0  0  0
    2.4449    2.3691   -0.4391 C   0  0  0  0  0
    2.3408    3.3580    0.6840 H   0  0  0  0  0
    2.9356    1.0199   -0.7950 C   0  0  0  0  0
    2.2317    3.1759   -1.7268 C   0  0  0  0  0
    1.1543    2.5176   -2.5104 C   0  0  0  0  0
    0.8546    1.2239   -1.8128 H   0  0  0  0  0
   -0.0536    3.4063   -2.5444 O   0  0  0  0  0
    1.5176    2.1905   -3.7921 C   0  0  0  0  0
    2.4242    3.3060   -4.2206 H   0  0  0  0  0
    1.1303   -3.0098   -3.1959 C   0  0  0  0  0
    0.6945   -4.4024   -2.8484 H   0  0  0  0  0
    0.8833   -2.3151   -4.5358 C   0  0  0  0  0
    0.3161   -0.9675   -4.2664 C   0  0  0  0  0
    0.4618   -0.7334   -2.7919 H   0  0  0  0  0
   -1.1262   -0.9404   -4.6774 O   0  0  0  0  0
    0.9887    0.0535   -4.8892 C   0  0  0  0  0
    1.4509   -0.5790   -6.1683 C   0  0  0  0  0
    1.6534    1.2189   -3.0276 C   0  0  0  0  0
    2.7561    2.2105   -2.8026 H   0  0  0  0  0
    1.5216   -1.2221   -2.6671 C   0  0  0  0  0
    1.0742   -0.0885   -3.6067 C   0  0  0  0  0
    0.5183    1.4667   -4.6582 C   0  0  0  0  0
   -0.4177    2.3974   -5.3707 H   0  0  0  0  0
    0.7069    2.1485   -2.3278 C   0  0  0  0  0
   -0.6995    1.8130   -2.7272 H   0  0  0  0  0
    0.8278    1.9903   -0.8410 C   0  0  0  0  0
    1.0083    3.5630   -2.7258 C   0  0  0  0  0
    0.0618    4.4926   -2.0259 C   0  0  0  0  0
    0.3632    5.9071   -2.4239 C   0  0  0  0  0
   -0.5833    6.8368   -1.7240 C   0  0  0  0  0
   -0.4623    6.6786   -0.2373 C   0  0  0  0  0
   -0.2818    8.2512   -2.1220 C   0  0  0  0  0
  1  2  1  0  0  0
  2 10  1  0  0  0
  2  4  1  0  0  0
  2  3  1  0  0  0
  4  5  1  0  0  0
  5  6  1  0  0  0
  6  8  1  0  0  0
  6 17  1  0  0  0
  6  7  1  0  0  0
  8 10  1  0  0  0
  8 11  1  0  0  0
  8  9  1  0  0  0
 11 12  1  0  0  0
 12 15  1  0  0  0
 12 14  1  0  0  0
 12 13  1  0  0  0
 15 29  1  0  0  0
 15 17  1  0  0  0
 15 16  1  0  0  0
 17 19  1  0  0  0
 17 18  1  0  0  0
 19 20  1  0  0  0
 20 23  1  0  0  0
 20 22  1  0  0  0
 20 21  1  0  0  0
 23 29  1  0  0  0
 23 25  1  0  0  0
 23 24  1  0  0  0
 25 27  1  0  0  0
 25 31  1  0  0  0
 25 26  1  0  0  0
 27 28  1  0  0  0
 28 29  1  0  0  0
 29 30  1  0  0  0
 31 34  1  0  0  0
 31 33  1  0  0  0
 31 32  1  0  0  0
 34 35  1  0  0  0
 35 36  1  0  0  0
 36 37  1  0  0  0
 37 39  1  0  0  0
 37 38  1  0  0  0
M  END
> <SMILES>
[H]C1(O)(CCC4(C)(C([H])(C1)CC([H])(O)C2([H])(C4([H])(CC([H])(O)C3(C)(C([H])(CCC23([H]))C([H])(C)CCCC(C)C)))))

> <NAME>
5-BETA-CHOLESTANE-3-ALPHA7-ALPHA12-ALP

> <BioCyc_link>
http://biocyc.org/HUMAN/NEW-IMAGE?object=5-BETA-CHOLESTANE-3-ALPHA7-ALPHA12-ALP

> <BioCyc_name_HTML>
5-&beta;-cholestane-3&alpha;,7&alpha;,12&alpha;-triol

> <CAS>


> <KEGG_ID>
C05454

> <toxTree.tree.cramer.CramerTreeResult>


> <FORMULA>


> <toxTree.tree.cramer.CramerRules>


$$$$
CPD-342
 OpenBabel30120812293D

 22 25  0  0  0  0  0  0  0  0999 V2000
    1.0000    0.0000    0.0000 H   0  0  0  0  0
    2.5000    0.0000    0.0000 C   0  0  0  0  0
    2.6341    1.3715   -0.6070 C   0  0  0  0  0
    3.0377    2.3590    0.4572 C   0  0  0  0  0
    4.3445    2.7458    0.5367 C   0  0  0  0  0
    4.6596    3.7372    1.5867 C   0  0  0  0  0
    5.3929   -0.4626    1.6692 C   0  0  0  0  0
    4.5760    1.8482    1.3558 C   0  0  0  0  0
    5.5647    0.9887    2.1632 C   0  0  0  0  0
    5.9765   -0.3836    2.6073 O   0  0  0  0  0
    5.9995    3.3687    2.2253 C   0  0  0  0  0
    6.8709    4.5896    2.2117 C   0  0  0  0  0
    5.8462    2.0584    2.9109 C   0  0  0  0  0
    6.7900    1.1294    2.5519 C   0  0  0  0  0
    6.7090   -0.2464    3.1623 C   0  0  0  0  0
    6.2626   -1.2328    2.1134 C   0  0  0  0  0
    7.6458   -1.7340    1.8209 C   0  0  0  0  0
    5.0117   -1.7844    2.2268 C   0  0  0  0  0
    4.6513   -2.6977    1.1113 C   0  0  0  0  0
    3.3324   -2.2057    0.5003 C   0  0  0  0  0
    2.0351   -2.9587    0.5037 O   0  0  0  0  0
    3.5488   -0.8680   -0.0925 C   0  0  0  0  0
  1  2  1  0  0  0
  2 22  1  0  0  0
  2 16  1  0  0  0
  2  3  1  0  0  0
  3  4  1  0  0  0
  4  5  1  0  0  0
  5 15  1  0  0  0
  5  6  1  0  0  0
  6 11  1  0  0  0
  6  7  1  0  0  0
  7  8  1  0  0  0
  8  9  1  0  0  0
  9 11  1  0  0  0
  9 10  2  0  0  0
 11 13  1  0  0  0
 11 12  1  0  0  0
 13 14  1  0  0  0
 14 15  1  0  0  0
 15 16  1  0  0  0
 16 18  1  0  0  0
 16 17  1  0  0  0
 18 19  1  0  0  0
 19 20  1  0  0  0
 20 22  1  0  0  0
 20 21  2  0  0  0
M  END
> <SMILES>
[H]C23(CCC1C4CCC(=O)C4(C)(CCC1C3(C)(CCC(=O)C2)))

> <NAME>
CPD-342

> <BioCyc_link>
http://biocyc.org/HUMAN/NEW-IMAGE?object=CPD-342

> <BioCyc_name_HTML>
5&alpha;-Androstane-3,17-dione

> <CAS>
846-46-8

> <KEGG_ID>
C00674

> <toxTree.tree.cramer.CramerTreeResult>


> <FORMULA>


> <toxTree.tree.cramer.CramerRules>


$$$$
DESMOSTEROL-CPD
 OpenBabel30120812303D

 34 37  0  0  0  0  0  0  0  0999 V2000
    1.0000    0.0000    0.0000 H   0  0  0  0  0
    2.5000    0.0000    0.0000 C   0  0  0  0  0
    2.9437    0.1766    1.4219 O   0  0  0  0  0
    3.0170   -1.2585   -0.5474 C   0  0  0  0  0
    2.5346   -1.6055   -1.8585 C   0  0  0  0  0
    2.4381   -0.5596   -2.8617 C   0  0  0  0  0
    3.1237    0.2061   -1.7691 C   0  0  0  0  0
    2.4900    0.7902   -2.5859 C   0  0  0  0  0
    2.0324    1.7142   -3.4744 C   0  0  0  0  0
    1.4404    1.2838   -4.7916 C   0  0  0  0  0
    2.1707    0.0285   -5.2708 C   0  0  0  0  0
    2.4142   -0.0719   -6.7475 H   0  0  0  0  0
    2.2508   -0.9628   -4.1447 C   0  0  0  0  0
    2.0371   -2.2696   -4.8494 H   0  0  0  0  0
    2.8425    1.2541   -1.9256 C   0  0  0  0  0
    1.9599   -1.0475   -3.4254 C   0  0  0  0  0
    2.7875   -1.2301   -2.1510 C   0  0  0  0  0
    3.5681   -2.1313   -1.2408 C   0  0  0  0  0
    2.3889   -0.8546   -3.5529 C   0  0  0  0  0
    2.8917   -0.8618   -4.9662 H   0  0  0  0  0
    2.6302    0.3473   -1.4075 C   0  0  0  0  0
    2.4794   -1.0538   -2.0259 C   0  0  0  0  0
    2.5163   -0.0573   -1.2035 C   0  0  0  0  0
    2.4810    0.7801    0.0405 H   0  0  0  0  0
    1.1712   -1.2004   -4.3576 C   0  0  0  0  0
    0.2680   -2.0714   -3.5357 H   0  0  0  0  0
    0.4215    0.0454   -4.7264 C   0  0  0  0  0
    1.5824   -1.9441   -5.5937 C   0  0  0  0  0
    0.3646   -2.2899   -6.3984 C   0  0  0  0  0
    0.7758   -3.0336   -7.6344 C   0  0  0  0  0
   -0.2635   -3.4950   -8.6127 C   0  0  0  0  0
   -1.7139   -3.2127   -8.3549 C   0  0  0  0  0
    0.1477   -4.2387   -9.8487 C   0  0  0  0  0
    3.1402    1.3451   -1.0384 C   0  0  0  0  0
  1  2  1  0  0  0
  2 34  1  0  0  0
  2  4  1  0  0  0
  2  3  1  0  0  0
  4  5  1  0  0  0
  5  6  1  0  0  0
  6  8  1  0  0  0
  6 13  1  0  0  0
  6  7  1  0  0  0
  8  9  2  0  0  0
  8 34  1  0  0  0
  9 10  1  0  0  0
 10 11  1  0  0  0
 11 13  1  0  0  0
 11 23  1  0  0  0
 11 12  1  0  0  0
 13 15  1  0  0  0
 13 14  1  0  0  0
 15 16  1  0  0  0
 16 17  1  0  0  0
 17 23  1  0  0  0
 17 19  1  0  0  0
 17 18  1  0  0  0
 19 21  1  0  0  0
 19 25  1  0  0  0
 19 20  1  0  0  0
 21 22  1  0  0  0
 22 23  1  0  0  0
 23 24  1  0  0  0
 25 28  1  0  0  0
 25 27  1  0  0  0
 25 26  1  0  0  0
 28 29  1  0  0  0
 29 30  1  0  0  0
 30 31  2  0  0  0
 31 33  1  0  0  0
 31 32  1  0  0  0
M  END
> <SMILES>
[H]C4(O)(CCC3(C)(C(=CCC1([H])(C3([H])(CCC2(C)(C([H])(CCC12([H]))C([H])(C)CCC=C(C)C))))C4))

> <NAME>
DESMOSTEROL-CPD

> <BioCyc_link>
http://biocyc.org/HUMAN/NEW-IMAGE?object=DESMOSTEROL-CPD

> <BioCyc_name_HTML>
desmosterol

> <CAS>
313-04-2

> <KEGG_ID>
C01802

> <toxTree.tree.cramer.CramerTreeResult>


> <FORMULA>


> <toxTree.tree.cramer.CramerRules>


$$$$
CPD-1087
 OpenBabel30120812303D

 32 35  0  0  0  0  0  0  0  0999 V2000
    1.0000    0.0000    0.0000 H   0  0  0  0  0
    2.5000    0.0000    0.0000 C   0  0  0  0  0
    2.9437    0.1766    1.4219 O   0  0  0  0  0
    3.1402    1.3451   -1.0384 C   0  0  0  0  0
    2.4900    0.7902   -2.5859 C   0  0  0  0  0
    2.0324    1.7142   -3.4744 C   0  0  0  0  0
    1.4404    1.2838   -4.7916 C   0  0  0  0  0
    0.3203    1.9726   -5.5133 O   0  0  0  0  0
    2.1707    0.0285   -5.2708 C   0  0  0  0  0
    2.2508   -0.9628   -4.1447 C   0  0  0  0  0
    2.4381   -0.5596   -2.8617 C   0  0  0  0  0
    3.1237    0.2061   -1.7691 C   0  0  0  0  0
    2.5346   -1.6055   -1.8585 C   0  0  0  0  0
    2.6569   -0.6314   -2.7875 C   0  0  0  0  0
    1.5567    1.0178   -4.9436 C   0  0  0  0  0
    1.8376    2.3806   -5.5039 H   0  0  0  0  0
    0.1134    1.4156   -5.0371 O   0  0  0  0  0
    2.0676   -0.4001   -5.2039 C   0  0  0  0  0
    2.2782   -0.4844   -6.6867 C   0  0  0  0  0
    2.3889   -0.8546   -3.5529 C   0  0  0  0  0
    2.6302    0.3473   -1.4075 C   0  0  0  0  0
    2.4794   -1.0538   -2.0259 C   0  0  0  0  0
    1.8749   -1.2506   -3.9472 C   0  0  0  0  0
    3.0170   -1.2585   -0.5474 C   0  0  0  0  0
    3.5476   -1.8052   -3.6149 C   0  0  0  0  0
    3.5210   -2.7338   -2.4372 C   0  0  0  0  0
    3.4864   -2.5866   -4.8938 C   0  0  0  0  0
    4.6451   -3.5372   -4.9557 C   0  0  0  0  0
    4.5839   -4.3186   -6.2347 C   0  0  0  0  0
    5.7426   -5.2692   -6.2966 C   0  0  0  0  0
    5.7160   -6.1978   -5.1189 C   0  0  0  0  0
    5.6814   -6.0505   -7.5756 C   0  0  0  0  0
  1  2  1  0  0  0
  2  4  1  0  0  0
  2 24  1  0  0  0
  2  3  1  0  0  0
  4  5  1  0  0  0
  5  6  2  0  0  0
  5 11  1  0  0  0
  6  7  1  0  0  0
  7  9  1  0  0  0
  7  8  2  0  0  0
  9 10  1  0  0  0
 10 11  1  0  0  0
 11 13  1  0  0  0
 11 12  1  0  0  0
 13 24  1  0  0  0
 13 14  1  0  0  0
 14 15  1  0  0  0
 15 18  1  0  0  0
 15 17  1  0  0  0
 15 16  1  0  0  0
 18 23  1  0  0  0
 18 20  1  0  0  0
 18 19  1  0  0  0
 20 21  1  0  0  0
 20 25  1  0  0  0
 21 22  1  0  0  0
 22 23  1  0  0  0
 23 24  1  0  0  0
 25 27  1  0  0  0
 25 26  1  0  0  0
 27 28  1  0  0  0
 28 29  1  0  0  0
 29 30  1  0  0  0
 30 32  1  0  0  0
 30 31  1  0  0  0
M  END
> <SMILES>
[H]C3(O)(CC1=CC(=O)CCC1(C)C2CC([H])(O)C4(C)(C(CCC4(C23))C(C)CCCC(C)C))

> <NAME>
CPD-1087

> <BioCyc_link>
http://biocyc.org/HUMAN/NEW-IMAGE?object=CPD-1087

> <BioCyc_name_HTML>
7&alpha;-hydroxycholest-4-en-3-one

> <CAS>


> <KEGG_ID>
C05457

> <toxTree.tree.cramer.CramerTreeResult>


> <FORMULA>


> <toxTree.tree.cramer.CramerRules>


$$$$
ALPHA-METHYL-5-ALPHA-ERGOSTA
 OpenBabel30120812303D

 35 38  0  0  0  0  0  0  0  0999 V2000
    1.0000    0.0000    0.0000 H   0  0  0  0  0
    2.5000    0.0000    0.0000 C   0  0  0  0  0
    2.9931   -0.6977    1.2329 C   0  0  0  0  0
    3.0193   -0.7348   -1.2002 C   0  0  0  0  0
    2.5089   -2.1452   -1.1833 C   0  0  0  0  0
    3.0282   -2.8800   -2.3834 C   0  0  0  0  0
    3.9161   -2.1770   -3.3671 C   0  0  0  0  0
    2.6597   -4.3178   -2.6000 C   0  0  0  0  0
    1.1693   -4.4649   -2.6840 C   0  0  0  0  0
    3.3025   -4.8151   -3.8607 C   0  0  0  0  0
    3.0007    1.4140    0.0000 C   0  0  0  0  0
    3.4320    0.3512   -0.9667 H   0  0  0  0  0
    3.2625    2.1165    1.1245 C   0  0  0  0  0
    3.0973   -0.0432    0.4093 C   0  0  0  0  0
    3.2344    2.7353    0.7539 C   0  0  0  0  0
    3.3660    1.5449    1.4300 C   0  0  0  0  0
    3.7540    1.6027    2.8831 C   0  0  0  0  0
    3.4326    0.2818    3.5800 C   0  0  0  0  0
    4.0307   -0.8590    2.7481 C   0  0  0  0  0
    5.2002   -1.1298    3.6476 H   0  0  0  0  0
    2.8991   -1.6216    1.0528 C   0  0  0  0  0
    2.3510   -1.8533   -0.3241 H   0  0  0  0  0
    2.2010   -2.5411    0.0951 C   0  0  0  0  0
    4.1152   -0.0720    4.0959 C   0  0  0  0  0
    5.2305    0.5868    4.8523 H   0  0  0  0  0
    3.7547    0.9392    5.1435 O   0  0  0  0  0
    3.5710   -1.2940    3.3440 C   0  0  0  0  0
    3.8492   -1.1311    1.9005 C   0  0  0  0  0
    3.2489   -0.9576    1.4387 C   0  0  0  0  0
    2.2033   -1.5907    0.5693 C   0  0  0  0  0
    3.1488    0.3912    0.7787 C   0  0  0  0  0
    2.7997    0.4335   -0.5990 C   0  0  0  0  0
    2.6880    1.6201   -1.2248 C   0  0  0  0  0
    2.9080    2.7622   -0.5477 C   0  0  0  0  0
    2.7999    4.1163   -1.1838 C   0  0  0  0  0
  1  2  1  0  0  0
  2 11  1  0  0  0
  2  4  1  0  0  0
  2  3  1  0  0  0
  4  5  1  0  0  0
  5  6  1  0  0  0
  6  8  1  0  0  0
  6  7  2  0  0  0
  8 10  1  0  0  0
  8  9  1  0  0  0
 11 13  1  0  0  0
 11 34  1  0  0  0
 11 12  1  0  0  0
 13 14  1  0  0  0
 14 15  2  0  0  0
 15 16  1  0  0  0
 15 34  1  0  0  0
 16 31  2  0  0  0
 16 17  1  0  0  0
 17 18  1  0  0  0
 18 19  1  0  0  0
 19 29  1  0  0  0
 19 21  1  0  0  0
 19 20  1  0  0  0
 21 24  1  0  0  0
 21 23  1  0  0  0
 21 22  1  0  0  0
 24 27  1  0  0  0
 24 26  1  0  0  0
 24 25  1  0  0  0
 27 28  1  0  0  0
 28 29  1  0  0  0
 29 31  1  0  0  0
 29 30  1  0  0  0
 31 32  1  0  0  0
 32 33  1  0  0  0
 33 34  1  0  0  0
 34 35  1  0  0  0
M  END
> <SMILES>
[H]C(C)(CCC(=C)C(C)C)C2([H])(CC=C1C=3CCC4([H])(C([H])(C)C([H])(O)CCC4(C)(C=3(CCC12(C)))))

> <NAME>
ALPHA-METHYL-5-ALPHA-ERGOSTA

> <BioCyc_link>
http://biocyc.org/HUMAN/NEW-IMAGE?object=ALPHA-METHYL-5-ALPHA-ERGOSTA

> <BioCyc_name_HTML>
(4&alpha;)-methyl-(5&alpha;)-ergosta-8,14,24(28)-trien-3&beta;-ol

> <CAS>


> <KEGG_ID>
C11508

> <toxTree.tree.cramer.CramerTreeResult>


> <FORMULA>


> <toxTree.tree.cramer.CramerRules>


$$$$
UBIQUINONE-8
 OpenBabel30120812303D

 23 23  0  0  0  0  0  0  0  0999 V2000
    1.0000    0.0000    0.0000 C   0  0  0  0  0
    2.5000    0.0000    0.0000 O   0  0  0  0  0
    3.2500    1.2990    0.0000 C   0  0  0  0  0
    2.6246    2.4623    0.3496 C   0  0  0  0  0
    1.3251    2.4188    1.0974 O   0  0  0  0  0
    3.1908    3.6846    0.0133 C   0  0  0  0  0
    2.3424    4.9216    0.0290 C   0  0  0  0  0
    4.4593    3.7734   -0.3185 C   0  0  0  0  0
    5.0278    5.1153   -0.6736 C   0  0  0  0  0
    6.4812    4.9690   -1.0145 C   0  0  0  0  0
    7.2845    6.1736   -1.4066 C   0  0  0  0  0
    6.6343    7.5244   -1.4580 C   0  0  0  0  0
    8.7379    6.0274   -1.7475 C   0  0  0  0  0
    9.3064    7.3693   -2.1026 C   0  0  0  0  0
   10.7598    7.2230   -2.4435 C   0  0  0  0  0
   11.5631    8.4276   -2.8356 C   0  0  0  0  0
   10.9129    9.7784   -2.8870 C   0  0  0  0  0
   13.0165    8.2813   -3.1765 C   0  0  0  0  0
    5.3554    2.5692   -0.3520 C   0  0  0  0  0
    6.8539    2.6257   -0.3880 O   0  0  0  0  0
    4.5522    1.3014   -0.3447 C   0  0  0  0  0
    5.2129    0.0107   -0.7290 O   0  0  0  0  0
    4.4243   -1.2653   -0.7268 C   0  0  0  0  0
  1  2  1  0  0  0
  2  3  1  0  0  0
  3  4  1  0  0  0
  3 21  2  0  0  0
  4  6  1  0  0  0
  4  5  2  0  0  0
  6  8  2  0  0  0
  6  7  1  0  0  0
  8 19  1  0  0  0
  8  9  1  0  0  0
  9 10  1  0  0  0
 10 11  2  0  0  0
 11 13  1  0  0  0
 11 12  1  0  0  0
 13 14  1  0  0  0
 14 15  1  0  0  0
 15 16  2  0  0  0
 16 18  1  0  0  0
 16 17  1  0  0  0
 19 21  1  0  0  0
 19 20  2  0  0  0
 21 22  1  0  0  0
 22 23  1  0  0  0
M  END
> <SMILES>
COC=1C(=O)C(C)=C(CC=C(C)CCC=C(C)C)C(=O)C=1(OC)

> <NAME>
UBIQUINONE-8

> <BioCyc_link>
http://biocyc.org/HUMAN/NEW-IMAGE?object=UBIQUINONE-8

> <BioCyc_name_HTML>
ubiquinone-<i>8</i>

> <CAS>
1339-63-5

> <KEGG_ID>
C00399

> <toxTree.tree.cramer.CramerTreeResult>


> <FORMULA>


> <toxTree.tree.cramer.CramerRules>


$$$$
ZYMOSTEROL
 OpenBabel30120812303D

 33 36  0  0  0  0  0  0  0  0999 V2000
    1.0000    0.0000    0.0000 H   0  0  0  0  0
    2.5000    0.0000    0.0000 C   0  0  0  0  0
    1.6507    1.2173    0.2162 O   0  0  0  0  0
    5.5494   -1.9082    0.4475 C   0  0  0  0  0
    4.0203   -1.8391    0.3389 C   0  0  0  0  0
    6.0175    2.5120    0.7080 C   0  0  0  0  0
    7.2280    3.3445    1.0108 C   0  0  0  0  0
    5.4025    1.2938    0.5371 C   0  0  0  0  0
    6.2303    0.0545    0.7476 C   0  0  0  0  0
    5.3331   -1.1645    0.9548 C   0  0  0  0  0
    4.3042   -1.2033   -0.1815 C   0  0  0  0  0
    3.9893   -2.4238   -0.9947 C   0  0  0  0  0
    3.3434   -0.0292    0.0023 C   0  0  0  0  0
    1.8640   -0.2348   -0.1358 H   0  0  0  0  0
    5.7988    0.4986    0.4882 C   0  0  0  0  0
    4.3278    2.4757    0.3068 C   0  0  0  0  0
    5.7272    2.0167    0.7530 C   0  0  0  0  0
    6.3649    2.3338    2.0731 H   0  0  0  0  0
    6.8826    2.5003   -0.0723 C   0  0  0  0  0
    6.7237    2.0070   -1.4800 H   0  0  0  0  0
    6.9123    3.9998   -0.0961 C   0  0  0  0  0
    8.1631    1.9645    0.4963 C   0  0  0  0  0
    9.3185    2.4480   -0.3291 C   0  0  0  0  0
   10.5990    1.9122    0.2396 C   0  0  0  0  0
   11.9080    2.2529   -0.4088 C   0  0  0  0  0
   11.9366    3.1294   -1.6257 C   0  0  0  0  0
   13.1885    1.7171    0.1599 C   0  0  0  0  0
    4.1057    1.2545    0.1919 C   0  0  0  0  0
    3.4068    2.4778    0.0005 C   0  0  0  0  0
    4.0484    3.6488    0.1715 C   0  0  0  0  0
    5.3480    3.6602    0.5208 C   0  0  0  0  0
    5.9747    5.0017    0.7607 H   0  0  0  0  0
    3.6479   -0.6164   -0.4055 C   0  0  0  0  0
  1  2  1  0  0  0
  2 33  1  0  0  0
  2  4  1  0  0  0
  2  3  1  0  0  0
  4  5  1  0  0  0
  5  6  1  0  0  0
  6  8  1  0  0  0
  6 31  1  0  0  0
  6  7  1  0  0  0
  8 28  2  0  0  0
  8  9  1  0  0  0
  9 10  1  0  0  0
 10 11  1  0  0  0
 11 13  1  0  0  0
 11 17  1  0  0  0
 11 12  1  0  0  0
 13 28  1  0  0  0
 13 15  1  0  0  0
 13 14  1  0  0  0
 15 16  1  0  0  0
 16 17  1  0  0  0
 17 19  1  0  0  0
 17 18  1  0  0  0
 19 22  1  0  0  0
 19 21  1  0  0  0
 19 20  1  0  0  0
 22 23  1  0  0  0
 23 24  1  0  0  0
 24 25  2  0  0  0
 25 27  1  0  0  0
 25 26  1  0  0  0
 28 29  1  0  0  0
 29 30  1  0  0  0
 30 31  1  0  0  0
 31 33  1  0  0  0
 31 32  1  0  0  0
M  END
> <SMILES>
[H]C2(O)(CCC3(C)(C=4CCC1(C)(C([H])(CCC1([H])(C([H])(C)CCC=C(C)C))C=4(CCC3([H])(C2)))))

> <NAME>
ZYMOSTEROL

> <BioCyc_link>
http://biocyc.org/HUMAN/NEW-IMAGE?object=ZYMOSTEROL

> <BioCyc_name_HTML>
zymosterol

> <CAS>
128-33-6

> <KEGG_ID>
C05437

> <toxTree.tree.cramer.CramerTreeResult>


> <FORMULA>


> <toxTree.tree.cramer.CramerRules>


$$$$
PHENYLETHYLAMINE
 OpenBabel30120812303D

  9  9  0  0  0  0  0  0  0  0999 V2000
    1.0000    0.0000    0.0000 N   0  0  0  0  0
    2.5000    0.0000    0.0000 C   0  0  0  0  0
    3.0007    1.4140    0.0000 C   0  0  0  0  0
    4.5007    1.4140    0.0000 C   0  0  0  0  0
    5.1886    1.4373    1.1950 C   0  0  0  0  0
    6.5849    1.4494    1.1940 C   0  0  0  0  0
    7.2751    1.4317   -0.0191 C   0  0  0  0  0
    6.5751    1.4024   -1.2069 C   0  0  0  0  0
    5.1910    1.3905   -1.1990 C   0  0  0  0  0
  1  2  1  0  0  0
  2  3  1  0  0  0
  3  4  1  0  0  0
  4  9  1  0  0  0
  4  5  2  0  0  0
  5  6  1  0  0  0
  6  7  2  0  0  0
  7  8  1  0  0  0
  8  9  2  0  0  0
M  END
> <SMILES>
NCCC1=CC=CC=C1

> <NAME>
PHENYLETHYLAMINE

> <BioCyc_link>
http://biocyc.org/HUMAN/NEW-IMAGE?object=PHENYLETHYLAMINE

> <BioCyc_name_HTML>
phenylethylamine

> <CAS>
64-04-0

> <KEGG_ID>
C05332

> <toxTree.tree.cramer.CramerTreeResult>


> <FORMULA>


> <toxTree.tree.cramer.CramerRules>


$$$$
CPD-7650
 OpenBabel30120812303D

 12 12  0  0  0  0  0  0  0  0999 V2000
    1.0000    0.0000    0.0000 C   0  0  0  0  0
    2.5000    0.0000    0.0000 O   0  0  0  0  0
    3.2500    1.2990    0.0000 C   0  0  0  0  0
    4.6289    1.2972    0.0150 C   0  0  0  0  0
    5.3263    2.5068    0.0271 C   0  0  0  0  0
    6.8261    2.5119    0.0500 C   0  0  0  0  0
    7.3219    3.9276    0.0593 C   0  0  0  0  0
    8.8217    3.9327    0.0821 N   0  0  0  0  0
    4.6209    3.7112    0.0179 C   0  0  0  0  0
    3.2421    3.6990   -0.0031 C   0  0  0  0  0
    2.5567    2.4965   -0.0151 C   0  0  0  0  0
    1.0570    2.4913   -0.0444 O   0  0  0  0  0
  1  2  1  0  0  0
  2  3  1  0  0  0
  3 11  2  0  0  0
  3  4  1  0  0  0
  4  5  2  0  0  0
  5  9  1  0  0  0
  5  6  1  0  0  0
  6  7  1  0  0  0
  7  8  1  0  0  0
  9 10  2  0  0  0
 10 11  1  0  0  0
 11 12  1  0  0  0
M  END
> <SMILES>
COC=1C=C(CCN)C=CC=1(O)

> <NAME>
CPD-7650

> <BioCyc_link>
http://biocyc.org/HUMAN/NEW-IMAGE?object=CPD-7650

> <BioCyc_name_HTML>
3-methoxytyramine

> <CAS>


> <KEGG_ID>
C05587

> <toxTree.tree.cramer.CramerTreeResult>


> <FORMULA>


> <toxTree.tree.cramer.CramerRules>


$$$$
ANTHRANILATE
 OpenBabel30120812303D

 10 10  0  0  0  0  0  0  0  0999 V2000
    1.0000    0.0000    0.0000 N   0  0  0  0  0
    2.5000    0.0000    0.0000 C   0  0  0  0  0
    3.1879   -1.1952   -0.0000 C   0  0  0  0  0
    4.5842   -1.1944    0.0121 C   0  0  0  0  0
    5.2744    0.0187    0.0181 C   0  0  0  0  0
    4.5744    1.2069    0.0121 C   0  0  0  0  0
    3.1903    1.1993    0.0000 C   0  0  0  0  0
    2.4359    2.4957   -0.0131 C   0  0  0  0  0
    3.1815    3.7973   -0.0131 O   0  0  0  0  0
    0.9360    2.4906   -0.0261 O   0  0  0  0  0
  1  2  1  0  0  0
  2  7  1  0  0  0
  2  3  2  0  0  0
  3  4  1  0  0  0
  4  5  2  0  0  0
  5  6  1  0  0  0
  6  7  2  0  0  0
  7  8  1  0  0  0
  8 10  1  0  0  0
  8  9  2  0  0  0
M  END
> <SMILES>
NC1=CC=CC=C1(C(=O)O)

> <NAME>
ANTHRANILATE

> <BioCyc_link>
http://biocyc.org/HUMAN/NEW-IMAGE?object=ANTHRANILATE

> <BioCyc_name_HTML>
anthranilate

> <CAS>
118-92-3

> <KEGG_ID>
C00108

> <toxTree.tree.cramer.CramerTreeResult>


> <FORMULA>


> <toxTree.tree.cramer.CramerRules>


$$$$
CPD-476
 OpenBabel30120812303D

 15 15  0  0  0  0  0  0  0  0999 V2000
    1.0000    0.0000    0.0000 N   0  0  0  0  0
    2.5000    0.0000    0.0000 C   0  0  0  0  0
    3.1879   -1.1952   -0.0000 C   0  0  0  0  0
    4.5842   -1.1944    0.0121 C   0  0  0  0  0
    5.2744    0.0187    0.0181 C   0  0  0  0  0
    4.5744    1.2069    0.0121 C   0  0  0  0  0
    3.1903    1.1993    0.0000 C   0  0  0  0  0
    2.4359    2.4957   -0.0131 C   0  0  0  0  0
    3.1815    3.7973   -0.0131 O   0  0  0  0  0
    0.9360    2.4906   -0.0261 C   0  0  0  0  0
    0.4305    3.9028   -0.0376 C   0  0  0  0  0
    1.4008    5.0467   -0.0349 O   0  0  0  0  0
   -1.0452    4.1711   -0.0519 C   0  0  0  0  0
   -2.0155    3.0272   -0.0546 O   0  0  0  0  0
   -1.5507    5.5833   -0.0634 O   0  0  0  0  0
  1  2  1  0  0  0
  2  7  1  0  0  0
  2  3  2  0  0  0
  3  4  1  0  0  0
  4  5  2  0  0  0
  5  6  1  0  0  0
  6  7  2  0  0  0
  7  8  1  0  0  0
  8 10  1  0  0  0
  8  9  2  0  0  0
 10 11  1  0  0  0
 11 13  1  0  0  0
 11 12  2  0  0  0
 13 15  1  0  0  0
 13 14  2  0  0  0
M  END
> <SMILES>
NC1=CC=CC=C1C(=O)CC(=O)C(=O)O

> <NAME>
CPD-476

> <BioCyc_link>
http://biocyc.org/HUMAN/NEW-IMAGE?object=CPD-476

> <BioCyc_name_HTML>
4-(2-aminophenyl)-2,4-dioxobutanoate

> <CAS>


> <KEGG_ID>
C01252

> <toxTree.tree.cramer.CramerTreeResult>


> <FORMULA>


> <toxTree.tree.cramer.CramerRules>


$$$$
TYRAMINE
 OpenBabel30120812303D

 10 10  0  0  0  0  0  0  0  0999 V2000
    1.0000    0.0000    0.0000 N   0  0  0  0  0
    2.5000    0.0000    0.0000 C   0  0  0  0  0
    3.0007    1.4140    0.0000 C   0  0  0  0  0
    4.5007    1.4140    0.0000 C   0  0  0  0  0
    5.1886    1.4373    1.1950 C   0  0  0  0  0
    6.5849    1.4494    1.1940 C   0  0  0  0  0
    7.2751    1.4317   -0.0191 C   0  0  0  0  0
    8.7750    1.4445   -0.0307 O   0  0  0  0  0
    6.5751    1.4024   -1.2069 C   0  0  0  0  0
    5.1910    1.3905   -1.1990 C   0  0  0  0  0
  1  2  1  0  0  0
  2  3  1  0  0  0
  3  4  1  0  0  0
  4 10  2  0  0  0
  4  5  1  0  0  0
  5  6  2  0  0  0
  6  7  1  0  0  0
  7  9  2  0  0  0
  7  8  1  0  0  0
  9 10  1  0  0  0
M  END
> <SMILES>
NCCC=1C=CC(O)=CC=1

> <NAME>
TYRAMINE

> <BioCyc_link>
http://biocyc.org/HUMAN/NEW-IMAGE?object=TYRAMINE

> <BioCyc_name_HTML>
tyramine

> <CAS>
51-67-2

> <KEGG_ID>
C00483

> <toxTree.tree.cramer.CramerTreeResult>


> <FORMULA>


> <toxTree.tree.cramer.CramerRules>


$$$$
L-DIHYDROXY-PHENYLALANINE
 OpenBabel30120812303D

 15 15  0  0  0  0  0  0  0  0999 V2000
    1.0000    0.0000    0.0000 H   0  0  0  0  0
    2.5000    0.0000    0.0000 C   0  0  0  0  0
    2.9931   -0.6977    1.2329 N   0  0  0  0  0
    3.0193   -0.7348   -1.2002 C   0  0  0  0  0
    2.5089   -2.1452   -1.1833 C   0  0  0  0  0
    1.1527   -2.3853   -1.1145 C   0  0  0  0  0
    0.6791   -3.6986   -1.0867 C   0  0  0  0  0
    1.5837   -4.7605   -1.1349 C   0  0  0  0  0
    1.0848   -6.1748   -1.1056 O   0  0  0  0  0
    2.9371   -4.5066   -1.2096 C   0  0  0  0  0
    3.9101   -5.6469   -1.2614 O   0  0  0  0  0
    3.4001   -3.2024   -1.2368 C   0  0  0  0  0
    3.0007    1.4140    0.0000 C   0  0  0  0  0
    2.0265    2.5546    0.0000 O   0  0  0  0  0
    4.4756    1.6873    0.0000 O   0  0  0  0  0
  1  2  1  0  0  0
  2 13  1  0  0  0
  2  4  1  0  0  0
  2  3  1  0  0  0
  4  5  1  0  0  0
  5 12  2  0  0  0
  5  6  1  0  0  0
  6  7  2  0  0  0
  7  8  1  0  0  0
  8 10  2  0  0  0
  8  9  1  0  0  0
 10 12  1  0  0  0
 10 11  1  0  0  0
 13 15  1  0  0  0
 13 14  2  0  0  0
M  END
> <SMILES>
[H]C(N)(CC=1C=CC(O)=C(O)C=1)C(=O)O

> <NAME>
L-DIHYDROXY-PHENYLALANINE

> <BioCyc_link>
http://biocyc.org/HUMAN/NEW-IMAGE?object=L-DIHYDROXY-PHENYLALANINE

> <BioCyc_name_HTML>
L-dopa

> <CAS>
59-92-7

> <KEGG_ID>
C00355

> <toxTree.tree.cramer.CramerTreeResult>


> <FORMULA>


> <toxTree.tree.cramer.CramerRules>


$$$$
ENOL-PHENYLPYRUVATE
 OpenBabel30120812303D

 12 12  0  0  0  0  0  0  0  0999 V2000
    1.0000    0.0000    0.0000 O   0  0  0  0  0
    2.5000    0.0000    0.0000 C   0  0  0  0  0
    3.2500   -1.2990    0.0000 O   0  0  0  0  0
    3.2500    1.2990    0.0000 C   0  0  0  0  0
    2.5000    2.5981    0.0000 O   0  0  0  0  0
    4.7500    1.2990    0.0000 C   0  0  0  0  0
    5.5000    2.5981    0.0000 C   0  0  0  0  0
    6.8789    2.5962    0.0150 C   0  0  0  0  0
    7.5763    3.8058    0.0271 C   0  0  0  0  0
    6.8709    5.0102    0.0179 C   0  0  0  0  0
    5.4921    4.9981   -0.0031 C   0  0  0  0  0
    4.8067    3.7955   -0.0151 C   0  0  0  0  0
  1  2  2  0  0  0
  2  4  1  0  0  0
  2  3  1  0  0  0
  4  6  2  0  0  0
  4  5  1  0  0  0
  6  7  1  0  0  0
  7 12  1  0  0  0
  7  8  2  0  0  0
  8  9  1  0  0  0
  9 10  2  0  0  0
 10 11  1  0  0  0
 11 12  2  0  0  0
M  END
> <SMILES>
O=C(O)C(O)=CC1=CC=CC=C1

> <NAME>
ENOL-PHENYLPYRUVATE

> <BioCyc_link>
http://biocyc.org/HUMAN/NEW-IMAGE?object=ENOL-PHENYLPYRUVATE

> <BioCyc_name_HTML>
enol-phenylpyruvate

> <CAS>
5801-57-0

> <KEGG_ID>
C02763

> <toxTree.tree.cramer.CramerTreeResult>


> <FORMULA>


> <toxTree.tree.cramer.CramerRules>


$$$$
DOPAMINE
 OpenBabel30120812303D

 11 11  0  0  0  0  0  0  0  0999 V2000
    1.0000    0.0000    0.0000 N   0  0  0  0  0
    2.5000    0.0000    0.0000 C   0  0  0  0  0
    3.0007    1.4140    0.0000 C   0  0  0  0  0
    4.5007    1.4140    0.0000 C   0  0  0  0  0
    5.1886    1.4373    1.1950 C   0  0  0  0  0
    6.5849    1.4494    1.1940 C   0  0  0  0  0
    7.2751    1.4317   -0.0191 C   0  0  0  0  0
    8.7750    1.4445   -0.0307 O   0  0  0  0  0
    6.5751    1.4024   -1.2069 C   0  0  0  0  0
    7.3158    1.3834   -2.5111 O   0  0  0  0  0
    5.1910    1.3905   -1.1990 C   0  0  0  0  0
  1  2  1  0  0  0
  2  3  1  0  0  0
  3  4  1  0  0  0
  4 11  2  0  0  0
  4  5  1  0  0  0
  5  6  2  0  0  0
  6  7  1  0  0  0
  7  9  2  0  0  0
  7  8  1  0  0  0
  9 11  1  0  0  0
  9 10  1  0  0  0
M  END
> <SMILES>
NCCC=1C=CC(O)=C(O)C=1

> <NAME>
DOPAMINE

> <BioCyc_link>
http://biocyc.org/HUMAN/NEW-IMAGE?object=DOPAMINE

> <BioCyc_name_HTML>
dopamine

> <CAS>
51-61-6

> <KEGG_ID>
C03758

> <toxTree.tree.cramer.CramerTreeResult>


> <FORMULA>


> <toxTree.tree.cramer.CramerRules>


$$$$
3-HYDROXY-ANTHRANILATE
 OpenBabel30120812303D

 11 11  0  0  0  0  0  0  0  0999 V2000
    1.0000    0.0000    0.0000 N   0  0  0  0  0
    2.5000    0.0000    0.0000 C   0  0  0  0  0
    3.1879   -1.1952   -0.0000 C   0  0  0  0  0
    2.4375   -2.4939   -0.0130 O   0  0  0  0  0
    4.5842   -1.1944    0.0121 C   0  0  0  0  0
    5.2744    0.0187    0.0181 C   0  0  0  0  0
    4.5744    1.2069    0.0121 C   0  0  0  0  0
    3.1903    1.1993    0.0000 C   0  0  0  0  0
    2.4359    2.4957   -0.0131 C   0  0  0  0  0
    3.1815    3.7973   -0.0131 O   0  0  0  0  0
    0.9360    2.4906   -0.0261 O   0  0  0  0  0
  1  2  1  0  0  0
  2  8  2  0  0  0
  2  3  1  0  0  0
  3  5  2  0  0  0
  3  4  1  0  0  0
  5  6  1  0  0  0
  6  7  2  0  0  0
  7  8  1  0  0  0
  8  9  1  0  0  0
  9 11  1  0  0  0
  9 10  2  0  0  0
M  END
> <SMILES>
NC=1C(O)=CC=CC=1(C(=O)O)

> <NAME>
3-HYDROXY-ANTHRANILATE

> <BioCyc_link>
http://biocyc.org/HUMAN/NEW-IMAGE?object=3-HYDROXY-ANTHRANILATE

> <BioCyc_name_HTML>
3-hydroxyanthranilate

> <CAS>
548-93-6

> <KEGG_ID>
C00632

> <toxTree.tree.cramer.CramerTreeResult>


> <FORMULA>


> <toxTree.tree.cramer.CramerRules>


$$$$
PUTRESCINE
 OpenBabel30120812303D

  6  5  0  0  0  0  0  0  0  0999 V2000
    1.0000    0.0000    0.0000 N   0  0  0  0  0
    2.5000    0.0000    0.0000 C   0  0  0  0  0
    3.0007    1.4140    0.0000 C   0  0  0  0  0
    4.5007    1.4140    0.0000 C   0  0  0  0  0
    5.0014    2.8279    0.0000 C   0  0  0  0  0
    6.5014    2.8279    0.0000 N   0  0  0  0  0
  1  2  1  0  0  0
  2  3  1  0  0  0
  3  4  1  0  0  0
  4  5  1  0  0  0
  5  6  1  0  0  0
M  END
> <SMILES>
NCCCCN

> <NAME>
PUTRESCINE

> <BioCyc_link>
http://biocyc.org/HUMAN/NEW-IMAGE?object=PUTRESCINE

> <BioCyc_name_HTML>
putrescine

> <CAS>
110-60-1

> <KEGG_ID>
C00134

> <toxTree.tree.cramer.CramerTreeResult>


> <FORMULA>


> <toxTree.tree.cramer.CramerRules>


$$$$
3-UREIDO-PROPIONATE
 OpenBabel30120812303D

  9  8  0  0  0  0  0  0  0  0999 V2000
    1.0000    0.0000    0.0000 N   0  0  0  0  0
    2.5000    0.0000    0.0000 C   0  0  0  0  0
    3.2500   -1.2990    0.0000 O   0  0  0  0  0
    3.2500    1.2990    0.0000 N   0  0  0  0  0
    4.7500    1.2990    0.0000 C   0  0  0  0  0
    5.2507    2.7130    0.0000 C   0  0  0  0  0
    6.7507    2.7130    0.0000 C   0  0  0  0  0
    7.5007    1.4140    0.0000 O   0  0  0  0  0
    7.5007    4.0120    0.0000 O   0  0  0  0  0
  1  2  1  0  0  0
  2  4  1  0  0  0
  2  3  2  0  0  0
  4  5  1  0  0  0
  5  6  1  0  0  0
  6  7  1  0  0  0
  7  9  1  0  0  0
  7  8  2  0  0  0
M  END
> <SMILES>
NC(=O)NCCC(=O)O

> <NAME>
3-UREIDO-PROPIONATE

> <BioCyc_link>
http://biocyc.org/HUMAN/NEW-IMAGE?object=3-UREIDO-PROPIONATE

> <BioCyc_name_HTML>
3-ureidopropionate

> <CAS>


> <KEGG_ID>
C02642

> <toxTree.tree.cramer.CramerTreeResult>


> <FORMULA>


> <toxTree.tree.cramer.CramerRules>


$$$$
UREA
 OpenBabel30120812303D

  4  3  0  0  0  0  0  0  0  0999 V2000
    1.0000    0.0000    0.0000 N   0  0  0  0  0
    2.5000    0.0000    0.0000 C   0  0  0  0  0
    3.2500   -1.2990    0.0000 N   0  0  0  0  0
    3.2500    1.2990    0.0000 O   0  0  0  0  0
  1  2  1  0  0  0
  2  4  2  0  0  0
  2  3  1  0  0  0
M  END
> <SMILES>
NC(N)=O

> <NAME>
UREA

> <BioCyc_link>
http://biocyc.org/HUMAN/NEW-IMAGE?object=UREA

> <BioCyc_name_HTML>
urea

> <CAS>
57-13-6

> <KEGG_ID>
C00086

> <toxTree.tree.cramer.CramerTreeResult>


> <FORMULA>


> <toxTree.tree.cramer.CramerRules>


$$$$
CPD-569
 OpenBabel30120812303D

  9  8  0  0  0  0  0  0  0  0999 V2000
    1.0000    0.0000    0.0000 C   0  0  0  0  0
    2.5000    0.0000    0.0000 C   0  0  0  0  0
    3.2500   -1.2990    0.0000 O   0  0  0  0  0
    3.2500    1.2990    0.0000 N   0  0  0  0  0
    4.7500    1.2990    0.0000 C   0  0  0  0  0
    5.2507    2.7130    0.0000 C   0  0  0  0  0
    6.7507    2.7130    0.0000 C   0  0  0  0  0
    7.2514    4.1270    0.0000 C   0  0  0  0  0
    8.7514    4.1270    0.0000 N   0  0  0  0  0
  1  2  1  0  0  0
  2  4  1  0  0  0
  2  3  2  0  0  0
  4  5  1  0  0  0
  5  6  1  0  0  0
  6  7  1  0  0  0
  7  8  1  0  0  0
  8  9  1  0  0  0
M  END
> <SMILES>
CC(=O)NCCCCN

> <NAME>
CPD-569

> <BioCyc_link>
http://biocyc.org/HUMAN/NEW-IMAGE?object=CPD-569

> <BioCyc_name_HTML>
<i>N</i>-acetylputrescine

> <CAS>
18233-70-0

> <KEGG_ID>
C02714

> <toxTree.tree.cramer.CramerTreeResult>


> <FORMULA>


> <toxTree.tree.cramer.CramerRules>


$$$$
L-GAMMA-GLUTAMYLCYSTEINE
 OpenBabel30120812303D

 18 17  0  0  0  0  0  0  0  0999 V2000
    1.0000    0.0000    0.0000 H   0  0  0  0  0
    2.5000    0.0000    0.0000 C   0  0  0  0  0
    2.9931   -0.6977    1.2329 N   0  0  0  0  0
    3.0193   -0.7348   -1.2002 C   0  0  0  0  0
    2.5089   -2.1452   -1.1833 C   0  0  0  0  0
    3.0282   -2.8800   -2.3834 C   0  0  0  0  0
    3.9161   -2.1770   -3.3671 O   0  0  0  0  0
    2.6597   -4.3178   -2.6000 N   0  0  0  0  0
    3.1790   -5.0526   -3.8001 C   0  0  0  0  0
    2.6959   -4.3683   -5.0444 H   0  0  0  0  0
    4.6790   -5.0432   -3.8059 C   0  0  0  0  0
    5.1707   -3.6262   -3.8228 S   0  0  0  0  0
    2.6686   -6.4630   -3.7832 C   0  0  0  0  0
    1.7798   -6.9257   -2.6670 O   0  0  0  0  0
    3.0470   -7.4108   -4.8826 O   0  0  0  0  0
    3.0007    1.4140    0.0000 C   0  0  0  0  0
    2.0265    2.5546    0.0000 O   0  0  0  0  0
    4.4756    1.6873    0.0000 O   0  0  0  0  0
  1  2  1  0  0  0
  2 16  1  0  0  0
  2  4  1  0  0  0
  2  3  1  0  0  0
  4  5  1  0  0  0
  5  6  1  0  0  0
  6  8  1  0  0  0
  6  7  2  0  0  0
  8  9  1  0  0  0
  9 13  1  0  0  0
  9 11  1  0  0  0
  9 10  1  0  0  0
 11 12  1  0  0  0
 13 15  1  0  0  0
 13 14  2  0  0  0
 16 18  1  0  0  0
 16 17  2  0  0  0
M  END
> <SMILES>
[H]C(N)(CCC(=O)NC([H])(CS)C(=O)O)C(=O)O

> <NAME>
L-GAMMA-GLUTAMYLCYSTEINE

> <BioCyc_link>
http://biocyc.org/HUMAN/NEW-IMAGE?object=L-GAMMA-GLUTAMYLCYSTEINE

> <BioCyc_name_HTML>
L-&gamma;-glutamylcysteine

> <CAS>
686-58-8

> <KEGG_ID>
C00669

> <toxTree.tree.cramer.CramerTreeResult>


> <FORMULA>


> <toxTree.tree.cramer.CramerRules>


$$$$
GLUTATHIONE
 OpenBabel30120812303D

 22 21  0  0  0  0  0  0  0  0999 V2000
    1.0000    0.0000    0.0000 H   0  0  0  0  0
    2.5000    0.0000    0.0000 C   0  0  0  0  0
    2.9931   -0.6977    1.2329 N   0  0  0  0  0
    3.0193   -0.7348   -1.2002 C   0  0  0  0  0
    2.5089   -2.1452   -1.1833 C   0  0  0  0  0
    3.0282   -2.8800   -2.3834 C   0  0  0  0  0
    3.9161   -2.1770   -3.3671 O   0  0  0  0  0
    2.6597   -4.3178   -2.6000 N   0  0  0  0  0
    3.1790   -5.0526   -3.8001 C   0  0  0  0  0
    2.6959   -4.3683   -5.0444 H   0  0  0  0  0
    4.6790   -5.0432   -3.8059 C   0  0  0  0  0
    5.1707   -3.6262   -3.8228 S   0  0  0  0  0
    2.6686   -6.4630   -3.7832 C   0  0  0  0  0
    1.7798   -6.9257   -2.6670 O   0  0  0  0  0
    3.0470   -7.4108   -4.8826 N   0  0  0  0  0
    2.5366   -8.8212   -4.8657 C   0  0  0  0  0
    3.0559   -9.5560   -6.0659 C   0  0  0  0  0
    3.9438   -8.8530   -7.0495 O   0  0  0  0  0
    2.6874  -10.9938   -6.2824 O   0  0  0  0  0
    3.0007    1.4140    0.0000 C   0  0  0  0  0
    2.0265    2.5546    0.0000 O   0  0  0  0  0
    4.4756    1.6873    0.0000 O   0  0  0  0  0
  1  2  1  0  0  0
  2 20  1  0  0  0
  2  4  1  0  0  0
  2  3  1  0  0  0
  4  5  1  0  0  0
  5  6  1  0  0  0
  6  8  1  0  0  0
  6  7  2  0  0  0
  8  9  1  0  0  0
  9 13  1  0  0  0
  9 11  1  0  0  0
  9 10  1  0  0  0
 11 12  1  0  0  0
 13 15  1  0  0  0
 13 14  2  0  0  0
 15 16  1  0  0  0
 16 17  1  0  0  0
 17 19  1  0  0  0
 17 18  2  0  0  0
 20 22  1  0  0  0
 20 21  2  0  0  0
M  END
> <SMILES>
[H]C(N)(CCC(=O)NC([H])(CS)C(=O)NCC(=O)O)C(=O)O

> <NAME>
GLUTATHIONE

> <BioCyc_link>
http://biocyc.org/HUMAN/NEW-IMAGE?object=GLUTATHIONE

> <BioCyc_name_HTML>
glutathione

> <CAS>
70-18-8

> <KEGG_ID>
C00051

> <toxTree.tree.cramer.CramerTreeResult>


> <FORMULA>


> <toxTree.tree.cramer.CramerRules>


$$$$
NITRIC-OXIDE
 OpenBabel30120812303D

  2  1  0  0  0  0  0  0  0  0999 V2000
    1.0000    0.0000    0.0000 N   0  0  0  0  0
    2.5000    0.0000    0.0000 O   0  0  0  0  0
  1  2  2  0  0  0
M  END
> <SMILES>
N=O

> <NAME>
NITRIC-OXIDE

> <BioCyc_link>
http://biocyc.org/HUMAN/NEW-IMAGE?object=NITRIC-OXIDE

> <BioCyc_name_HTML>
nitric

> <CAS>
10102-43-9

> <KEGG_ID>
C00533

> <toxTree.tree.cramer.CramerTreeResult>


> <FORMULA>


> <toxTree.tree.cramer.CramerRules>


$$$$
CPD-548
 OpenBabel30120812303D

 24 23  0  0  0  0  0  0  0  0999 V2000
    1.0000    0.0000    0.0000 H   0  0  0  0  0
    2.5000    0.0000    0.0000 C   0  0  0  0  0
    2.9931   -0.6977    1.2329 N   0  0  0  0  0
    3.0193   -0.7348   -1.2002 C   0  0  0  0  0
    2.5089   -2.1452   -1.1833 C   0  0  0  0  0
    3.0282   -2.8800   -2.3834 C   0  0  0  0  0
    3.9161   -2.1770   -3.3671 O   0  0  0  0  0
    2.6597   -4.3178   -2.6000 N   0  0  0  0  0
    3.1790   -5.0526   -3.8001 C   0  0  0  0  0
    2.6959   -4.3683   -5.0444 H   0  0  0  0  0
    4.6790   -5.0432   -3.8059 C   0  0  0  0  0
    5.1707   -3.6262   -3.8228 S   0  0  0  0  0
    6.6707   -3.6168   -3.8286 C   0  0  0  0  0
    7.4125   -2.3131   -3.8452 O   0  0  0  0  0
    2.6686   -6.4630   -3.7832 C   0  0  0  0  0
    1.7798   -6.9257   -2.6670 O   0  0  0  0  0
    3.0470   -7.4108   -4.8826 N   0  0  0  0  0
    2.5366   -8.8212   -4.8657 C   0  0  0  0  0
    3.0559   -9.5560   -6.0659 C   0  0  0  0  0
    3.9438   -8.8530   -7.0495 O   0  0  0  0  0
    2.6874  -10.9938   -6.2824 O   0  0  0  0  0
    3.0007    1.4140    0.0000 C   0  0  0  0  0
    2.0265    2.5546    0.0000 O   0  0  0  0  0
    4.4756    1.6873    0.0000 O   0  0  0  0  0
  1  2  1  0  0  0
  2 22  1  0  0  0
  2  4  1  0  0  0
  2  3  1  0  0  0
  4  5  1  0  0  0
  5  6  1  0  0  0
  6  8  1  0  0  0
  6  7  2  0  0  0
  8  9  1  0  0  0
  9 15  1  0  0  0
  9 11  1  0  0  0
  9 10  1  0  0  0
 11 12  1  0  0  0
 12 13  1  0  0  0
 13 14  2  0  0  0
 15 17  1  0  0  0
 15 16  2  0  0  0
 17 18  1  0  0  0
 18 19  1  0  0  0
 19 21  1  0  0  0
 19 20  2  0  0  0
 22 24  1  0  0  0
 22 23  2  0  0  0
M  END
> <SMILES>
[H]C(N)(CCC(=O)NC([H])(CSC=O)C(=O)NCC(=O)O)C(=O)O

> <NAME>
CPD-548

> <BioCyc_link>
http://biocyc.org/HUMAN/NEW-IMAGE?object=CPD-548

> <BioCyc_name_HTML>
<i>S</i>-formylglutathione

> <CAS>


> <KEGG_ID>
C01031

> <toxTree.tree.cramer.CramerTreeResult>


> <FORMULA>


> <toxTree.tree.cramer.CramerRules>


$$$$
AGMATHINE
 OpenBabel30120812303D

  9  8  0  0  0  0  0  0  0  0999 V2000
    1.0000    0.0000    0.0000 N   0  0  0  0  0
    2.5000    0.0000    0.0000 C   0  0  0  0  0
    3.0007    1.4140    0.0000 C   0  0  0  0  0
    4.5007    1.4140    0.0000 C   0  0  0  0  0
    5.0014    2.8279    0.0000 C   0  0  0  0  0
    6.5014    2.8279    0.0000 N   0  0  0  0  0
    7.2514    4.1270    0.0000 C   0  0  0  0  0
    6.5014    5.4260    0.0000 N   0  0  0  0  0
    8.7514    4.1270    0.0000 N   0  0  0  0  0
  1  2  1  0  0  0
  2  3  1  0  0  0
  3  4  1  0  0  0
  4  5  1  0  0  0
  5  6  1  0  0  0
  6  7  2  0  0  0
  7  9  1  0  0  0
  7  8  1  0  0  0
M  END
> <SMILES>
NCCCCN=C(N)N

> <NAME>
AGMATHINE

> <BioCyc_link>
http://biocyc.org/HUMAN/NEW-IMAGE?object=AGMATHINE

> <BioCyc_name_HTML>
agmatine

> <CAS>
306-60-5

> <KEGG_ID>
C00179

> <toxTree.tree.cramer.CramerTreeResult>


> <FORMULA>


> <toxTree.tree.cramer.CramerRules>


$$$$
ALLANTOATE
 OpenBabel30120812303D

 12 11  0  0  0  0  0  0  0  0999 V2000
    1.0000    0.0000    0.0000 N   0  0  0  0  0
    2.5000    0.0000    0.0000 C   0  0  0  0  0
    3.2500   -1.2990    0.0000 O   0  0  0  0  0
    3.2500    1.2990    0.0000 N   0  0  0  0  0
    4.7500    1.2990    0.0000 C   0  0  0  0  0
    5.2693    0.5642   -1.2002 N   0  0  0  0  0
    4.9008   -0.8736   -1.4167 C   0  0  0  0  0
    4.0130   -1.5766   -0.4330 N   0  0  0  0  0
    5.4201   -1.6084   -2.6168 O   0  0  0  0  0
    5.2507    2.7130    0.0000 C   0  0  0  0  0
    4.2765    3.8536    0.0000 O   0  0  0  0  0
    6.7256    2.9864    0.0000 O   0  0  0  0  0
  1  2  1  0  0  0
  2  4  1  0  0  0
  2  3  2  0  0  0
  4  5  1  0  0  0
  5 10  1  0  0  0
  5  6  1  0  0  0
  6  7  1  0  0  0
  7  9  2  0  0  0
  7  8  1  0  0  0
 10 12  1  0  0  0
 10 11  2  0  0  0
M  END
> <SMILES>
NC(=O)NC(NC(N)=O)C(=O)O

> <NAME>
ALLANTOATE

> <BioCyc_link>
http://biocyc.org/HUMAN/NEW-IMAGE?object=ALLANTOATE

> <BioCyc_name_HTML>
allantoate

> <CAS>
99-16-1

> <KEGG_ID>
C00499

> <toxTree.tree.cramer.CramerTreeResult>


> <FORMULA>


> <toxTree.tree.cramer.CramerRules>


$$$$
AMMONIA
 OpenBabel30120812303D

  1  0  0  0  0  0  0  0  0  0999 V2000
    1.0000    0.0000    0.0000 N   0  0  0  0  0
M  END
> <SMILES>
N

> <NAME>
AMMONIA

> <BioCyc_link>
http://biocyc.org/HUMAN/NEW-IMAGE?object=AMMONIA

> <BioCyc_name_HTML>
ammonia

> <CAS>
7664-41-7

> <KEGG_ID>
C00014

> <toxTree.tree.cramer.CramerTreeResult>


> <FORMULA>


> <toxTree.tree.cramer.CramerRules>


$$$$
CADAVERINE
 OpenBabel30120812303D

  7  6  0  0  0  0  0  0  0  0999 V2000
    1.0000    0.0000    0.0000 N   0  0  0  0  0
    2.5000    0.0000    0.0000 C   0  0  0  0  0
    3.0007    1.4140    0.0000 C   0  0  0  0  0
    4.5007    1.4140    0.0000 C   0  0  0  0  0
    5.0014    2.8279    0.0000 C   0  0  0  0  0
    6.5014    2.8279    0.0000 C   0  0  0  0  0
    7.0021    4.2419    0.0000 N   0  0  0  0  0
  1  2  1  0  0  0
  2  3  1  0  0  0
  3  4  1  0  0  0
  4  5  1  0  0  0
  5  6  1  0  0  0
  6  7  1  0  0  0
M  END
> <SMILES>
NCCCCCN

> <NAME>
CADAVERINE

> <BioCyc_link>
http://biocyc.org/HUMAN/NEW-IMAGE?object=CADAVERINE

> <BioCyc_name_HTML>
cadaverine

> <CAS>
462-94-2

> <KEGG_ID>
C01672

> <toxTree.tree.cramer.CramerTreeResult>


> <FORMULA>


> <toxTree.tree.cramer.CramerRules>


$$$$
CARBON-DIOXIDE
 OpenBabel30120812303D

  3  2  0  0  0  0  0  0  0  0999 V2000
    1.0000    0.0000    0.0000 O   0  0  0  0  0
    2.5000    0.0000    0.0000 C   0  0  0  0  0
    4.0000    0.0000    0.0000 O   0  0  0  0  0
  1  2  2  0  0  0
  2  3  2  0  0  0
M  END
> <SMILES>
O=C=O

> <NAME>
CARBON-DIOXIDE

> <BioCyc_link>
http://biocyc.org/HUMAN/NEW-IMAGE?object=CARBON-DIOXIDE

> <BioCyc_name_HTML>
CO<SUB>2</SUB>

> <CAS>
124-38-9

> <KEGG_ID>
C00011

> <toxTree.tree.cramer.CramerTreeResult>


> <FORMULA>


> <toxTree.tree.cramer.CramerRules>


$$$$
CARBON-MONOXIDE
 OpenBabel30120812303D

  2  1  0  0  0  0  0  0  0  0999 V2000
    1.0000    0.0000    0.0000 C   0  0  0  0  0
    2.5000    0.0000    0.0000 O   0  0  0  0  0
  1  2  3  0  0  0
M  RAD  1   2   3
M  CHG  2   1  -1   2   1
M  END
> <SMILES>
[C-]#[O+]

> <NAME>
CARBON-MONOXIDE

> <BioCyc_link>
http://biocyc.org/HUMAN/NEW-IMAGE?object=CARBON-MONOXIDE

> <BioCyc_name_HTML>
CO

> <CAS>
630-08-0

> <KEGG_ID>
C00237

> <toxTree.tree.cramer.CramerTreeResult>


> <FORMULA>


> <toxTree.tree.cramer.CramerRules>


$$$$
CPD-313
 OpenBabel30120812303D

  5  4  0  0  0  0  0  0  0  0999 V2000
    1.0000    0.0000    0.0000 N   0  0  0  0  0
    2.5000    0.0000    0.0000 C   0  0  0  0  0
    3.0007    1.4140    0.0000 C   0  0  0  0  0
    4.5007    1.4140    0.0000 C   0  0  0  0  0
    5.0014    2.8279    0.0000 N   0  0  0  0  0
  1  2  1  0  0  0
  2  3  1  0  0  0
  3  4  1  0  0  0
  4  5  1  0  0  0
M  END
> <SMILES>
NCCCN

> <NAME>
CPD-313

> <BioCyc_link>
http://biocyc.org/HUMAN/NEW-IMAGE?object=CPD-313

> <BioCyc_name_HTML>
1,3-diaminopropane

> <CAS>
109-76-2

> <KEGG_ID>
C00986

> <toxTree.tree.cramer.CramerTreeResult>


> <FORMULA>


> <toxTree.tree.cramer.CramerRules>


$$$$
CPD-1091
 OpenBabel30120812303D

 10  9  0  0  0  0  0  0  0  0999 V2000
    1.0000    0.0000    0.0000 H   0  0  0  0  0
    2.5000    0.0000    0.0000 C   0  0  0  0  0
    2.9931   -0.6977    1.2329 O   0  0  0  0  0
    3.0193   -0.7348   -1.2002 N   0  0  0  0  0
    2.6508   -2.1726   -1.4167 C   0  0  0  0  0
    1.7630   -2.8756   -0.4330 N   0  0  0  0  0
    3.1701   -2.9074   -2.6168 O   0  0  0  0  0
    3.0007    1.4140    0.0000 C   0  0  0  0  0
    2.0265    2.5546    0.0000 O   0  0  0  0  0
    4.4756    1.6873    0.0000 O   0  0  0  0  0
  1  2  1  0  0  0
  2  8  1  0  0  0
  2  4  1  0  0  0
  2  3  1  0  0  0
  4  5  1  0  0  0
  5  7  2  0  0  0
  5  6  1  0  0  0
  8 10  1  0  0  0
  8  9  2  0  0  0
M  END
> <SMILES>
[H]C(O)(NC(N)=O)C(=O)O

> <NAME>
CPD-1091

> <BioCyc_link>
http://biocyc.org/HUMAN/NEW-IMAGE?object=CPD-1091

> <BioCyc_name_HTML>
<i>S</i>-ureidoglycolate

> <CAS>


> <KEGG_ID>
C00603

> <toxTree.tree.cramer.CramerTreeResult>


> <FORMULA>


> <toxTree.tree.cramer.CramerRules>


$$$$
CPD-511
 OpenBabel30120812303D

 19 18  0  0  0  0  0  0  0  0999 V2000
    1.0000    0.0000    0.0000 H   0  0  0  0  0
    2.5000    0.0000    0.0000 C   0  0  0  0  0
    2.9931   -0.6977    1.2329 O   0  0  0  0  0
    3.0193   -0.7348   -1.2002 C   0  0  0  0  0
    3.9071   -0.0318   -2.1838 O   0  0  0  0  0
    2.6508   -2.1726   -1.4167 N   0  0  0  0  0
    3.1701   -2.9074   -2.6168 C   0  0  0  0  0
    2.6597   -4.3178   -2.6000 C   0  0  0  0  0
    3.1790   -5.0526   -3.8001 C   0  0  0  0  0
    4.0668   -4.3496   -4.7837 O   0  0  0  0  0
    2.8105   -6.4905   -4.0166 N   0  0  0  0  0
    3.3298   -7.2253   -5.2168 C   0  0  0  0  0
    2.8194   -8.6357   -5.1999 C   0  0  0  0  0
    3.3387   -9.3705   -6.4001 S   0  0  0  0  0
    3.0007    1.4140    0.0000 C   0  0  0  0  0
    2.5076    2.1117   -1.2329 C   0  0  0  0  0
    2.4814    2.1488    1.2002 C   0  0  0  0  0
    4.5007    1.4140    0.0000 C   0  0  0  0  0
    5.0014    2.8279    0.0000 O   0  0  0  0  0
  1  2  1  0  0  0
  2 15  1  0  0  0
  2  4  1  0  0  0
  2  3  1  0  0  0
  4  6  1  0  0  0
  4  5  2  0  0  0
  6  7  1  0  0  0
  7  8  1  0  0  0
  8  9  1  0  0  0
  9 11  1  0  0  0
  9 10  2  0  0  0
 11 12  1  0  0  0
 12 13  1  0  0  0
 13 14  1  0  0  0
 15 18  1  0  0  0
 15 17  1  0  0  0
 15 16  1  0  0  0
 18 19  1  0  0  0
M  END
> <SMILES>
[H]C(O)(C(=O)NCCC(=O)NCCS)C(C)(C)CO

> <NAME>
CPD-511

> <BioCyc_link>
http://biocyc.org/HUMAN/NEW-IMAGE?object=CPD-511

> <BioCyc_name_HTML>
pantetheine

> <CAS>
496-65-1

> <KEGG_ID>
C00831

> <toxTree.tree.cramer.CramerTreeResult>


> <FORMULA>


> <toxTree.tree.cramer.CramerRules>


$$$$
L-ARGININO-SUCCINATE
 OpenBabel30120812303D

 21 20  0  0  0  0  0  0  0  0999 V2000
    1.0000    0.0000    0.0000 H   0  0  0  0  0
    2.5000    0.0000    0.0000 C   0  0  0  0  0
    2.9931   -0.6977    1.2329 N   0  0  0  0  0
    3.0193   -0.7348   -1.2002 C   0  0  0  0  0
    2.5089   -2.1452   -1.1833 C   0  0  0  0  0
    3.0282   -2.8800   -2.3834 C   0  0  0  0  0
    2.5178   -4.2904   -2.3666 N   0  0  0  0  0
    2.8962   -5.2382   -3.4659 C   0  0  0  0  0
    3.7851   -4.7755   -4.5821 N   0  0  0  0  0
    2.3858   -6.6485   -3.4490 N   0  0  0  0  0
    2.7643   -7.5963   -4.5484 C   0  0  0  0  0
    4.2559   -7.7363   -4.6228 C   0  0  0  0  0
    4.8731   -6.3922   -4.8726 C   0  0  0  0  0
    4.0007   -5.1793   -5.0058 O   0  0  0  0  0
    6.3628   -6.2611   -4.9893 O   0  0  0  0  0
    2.1291   -8.9320   -4.2987 C   0  0  0  0  0
    1.2690   -9.1388   -3.0873 O   0  0  0  0  0
    2.3540  -10.0610   -5.2604 O   0  0  0  0  0
    3.0007    1.4140    0.0000 C   0  0  0  0  0
    2.0265    2.5546    0.0000 O   0  0  0  0  0
    4.4756    1.6873    0.0000 O   0  0  0  0  0
  1  2  1  0  0  0
  2 19  1  0  0  0
  2  4  1  0  0  0
  2  3  1  0  0  0
  4  5  1  0  0  0
  5  6  1  0  0  0
  6  7  1  0  0  0
  7  8  2  0  0  0
  8 10  1  0  0  0
  8  9  1  0  0  0
 10 11  1  0  0  0
 11 16  1  0  0  0
 11 12  1  0  0  0
 12 13  1  0  0  0
 13 15  1  0  0  0
 13 14  2  0  0  0
 16 18  1  0  0  0
 16 17  2  0  0  0
 19 21  1  0  0  0
 19 20  2  0  0  0
M  END
> <SMILES>
[H]C(N)(CCCN=C(N)NC(CC(=O)O)C(=O)O)C(=O)O

> <NAME>
L-ARGININO-SUCCINATE

> <BioCyc_link>
http://biocyc.org/HUMAN/NEW-IMAGE?object=L-ARGININO-SUCCINATE

> <BioCyc_name_HTML>
L-arginino-succinate

> <CAS>


> <KEGG_ID>
C03406

> <toxTree.tree.cramer.CramerTreeResult>


> <FORMULA>


> <toxTree.tree.cramer.CramerRules>


$$$$
S-LACTOYL-GLUTATHIONE
 OpenBabel30120812303D

 28 27  0  0  0  0  0  0  0  0999 V2000
    1.0000    0.0000    0.0000 H   0  0  0  0  0
    2.5000    0.0000    0.0000 C   0  0  0  0  0
    2.9931   -0.6977    1.2329 C   0  0  0  0  0
    3.0193   -0.7348   -1.2002 O   0  0  0  0  0
    3.0007    1.4140    0.0000 C   0  0  0  0  0
    2.0265    2.5546    0.0000 O   0  0  0  0  0
    4.4756    1.6873    0.0000 S   0  0  0  0  0
    4.7102    3.1688    0.0000 C   0  0  0  0  0
    6.1851    3.4422    0.0000 C   0  0  0  0  0
    6.7971    2.8460    1.2329 H   0  0  0  0  0
    6.8297    2.8143   -1.2002 N   0  0  0  0  0
    6.7293    1.3334   -1.4167 C   0  0  0  0  0
    5.9845    0.4804   -0.4330 O   0  0  0  0  0
    7.3738    0.7056   -2.6168 C   0  0  0  0  0
    7.1290   -0.7742   -2.6000 C   0  0  0  0  0
    7.7735   -1.4021   -3.8001 C   0  0  0  0  0
    7.1738   -0.8172   -5.0444 H   0  0  0  0  0
    9.2467   -1.1195   -3.8059 N   0  0  0  0  0
    7.5287   -2.8819   -3.7832 C   0  0  0  0  0
    6.7391   -3.4987   -2.6670 O   0  0  0  0  0
    8.0735   -3.7448   -4.8826 O   0  0  0  0  0
    6.4198    4.9237    0.0000 C   0  0  0  0  0
    5.2541    5.8677    0.0000 O   0  0  0  0  0
    7.8201    5.4613    0.0000 N   0  0  0  0  0
    8.0548    6.9428    0.0000 C   0  0  0  0  0
    9.5297    7.2162    0.0000 C   0  0  0  0  0
   10.5039    6.0756    0.0000 O   0  0  0  0  0
   10.0304    8.6301    0.0000 O   0  0  0  0  0
  1  2  1  0  0  0
  2  5  1  0  0  0
  2  4  1  0  0  0
  2  3  1  0  0  0
  5  7  1  0  0  0
  5  6  2  0  0  0
  7  8  1  0  0  0
  8  9  1  0  0  0
  9 22  1  0  0  0
  9 11  1  0  0  0
  9 10  1  0  0  0
 11 12  1  0  0  0
 12 14  1  0  0  0
 12 13  2  0  0  0
 14 15  1  0  0  0
 15 16  1  0  0  0
 16 19  1  0  0  0
 16 18  1  0  0  0
 16 17  1  0  0  0
 19 21  1  0  0  0
 19 20  2  0  0  0
 22 24  1  0  0  0
 22 23  2  0  0  0
 24 25  1  0  0  0
 25 26  1  0  0  0
 26 28  1  0  0  0
 26 27  2  0  0  0
M  END
> <SMILES>
[H]C(C)(O)C(=O)SCC([H])(NC(=O)CCC([H])(N)C(=O)O)C(=O)NCC(=O)O

> <NAME>
S-LACTOYL-GLUTATHIONE

> <BioCyc_link>
http://biocyc.org/HUMAN/NEW-IMAGE?object=S-LACTOYL-GLUTATHIONE

> <BioCyc_name_HTML>
S-lactoyl-glutathione

> <CAS>
25138-66-3

> <KEGG_ID>
C03451

> <toxTree.tree.cramer.CramerTreeResult>


> <FORMULA>


> <toxTree.tree.cramer.CramerRules>


$$$$
S-HYDROXYMETHYLGLUTATHIONE
 OpenBabel30120812303D

 24 23  0  0  0  0  0  0  0  0999 V2000
    1.0000    0.0000    0.0000 H   0  0  0  0  0
    2.5000    0.0000    0.0000 C   0  0  0  0  0
    2.9931   -0.6977    1.2329 N   0  0  0  0  0
    3.0193   -0.7348   -1.2002 C   0  0  0  0  0
    2.5089   -2.1452   -1.1833 C   0  0  0  0  0
    3.0282   -2.8800   -2.3834 C   0  0  0  0  0
    3.9161   -2.1770   -3.3671 O   0  0  0  0  0
    2.6597   -4.3178   -2.6000 N   0  0  0  0  0
    3.1790   -5.0526   -3.8001 C   0  0  0  0  0
    2.6959   -4.3683   -5.0444 H   0  0  0  0  0
    4.6790   -5.0432   -3.8059 C   0  0  0  0  0
    5.1707   -3.6262   -3.8228 S   0  0  0  0  0
    6.6707   -3.6168   -3.8286 C   0  0  0  0  0
    7.1624   -2.1998   -3.8454 O   0  0  0  0  0
    2.6686   -6.4630   -3.7832 C   0  0  0  0  0
    1.7798   -6.9257   -2.6670 O   0  0  0  0  0
    3.0470   -7.4108   -4.8826 N   0  0  0  0  0
    2.5366   -8.8212   -4.8657 C   0  0  0  0  0
    3.0559   -9.5560   -6.0659 C   0  0  0  0  0
    3.9438   -8.8530   -7.0495 O   0  0  0  0  0
    2.6874  -10.9938   -6.2824 O   0  0  0  0  0
    3.0007    1.4140    0.0000 C   0  0  0  0  0
    2.0265    2.5546    0.0000 O   0  0  0  0  0
    4.4756    1.6873    0.0000 O   0  0  0  0  0
  1  2  1  0  0  0
  2 22  1  0  0  0
  2  4  1  0  0  0
  2  3  1  0  0  0
  4  5  1  0  0  0
  5  6  1  0  0  0
  6  8  1  0  0  0
  6  7  2  0  0  0
  8  9  1  0  0  0
  9 15  1  0  0  0
  9 11  1  0  0  0
  9 10  1  0  0  0
 11 12  1  0  0  0
 12 13  1  0  0  0
 13 14  1  0  0  0
 15 17  1  0  0  0
 15 16  2  0  0  0
 17 18  1  0  0  0
 18 19  1  0  0  0
 19 21  1  0  0  0
 19 20  2  0  0  0
 22 24  1  0  0  0
 22 23  2  0  0  0
M  END
> <SMILES>
[H]C(N)(CCC(=O)NC([H])(CSCO)C(=O)NCC(=O)O)C(=O)O

> <NAME>
S-HYDROXYMETHYLGLUTATHIONE

> <BioCyc_link>
http://biocyc.org/HUMAN/NEW-IMAGE?object=S-HYDROXYMETHYLGLUTATHIONE

> <BioCyc_name_HTML>
<i>S</i>-hydroxymethylglutathione

> <CAS>


> <KEGG_ID>
C14180

> <toxTree.tree.cramer.CramerTreeResult>


> <FORMULA>


> <toxTree.tree.cramer.CramerRules>


$$$$
LEUKOTRIENE-C4
 OpenBabel30120812303D

 47 46  0  0  0  0  0  0  0  0999 V2000
    1.0000    0.0000    0.0000 H   0  0  0  0  0
    2.5000    0.0000    0.0000 C   0  0  0  0  0
    2.9931   -0.6977    1.2329 N   0  0  0  0  0
    3.0193   -0.7348   -1.2002 C   0  0  0  0  0
    2.5089   -2.1452   -1.1833 C   0  0  0  0  0
    3.0282   -2.8800   -2.3834 C   0  0  0  0  0
    3.9161   -2.1770   -3.3671 O   0  0  0  0  0
    2.6597   -4.3178   -2.6000 N   0  0  0  0  0
    3.1790   -5.0526   -3.8001 C   0  0  0  0  0
    2.6959   -4.3683   -5.0444 H   0  0  0  0  0
    4.6790   -5.0432   -3.8059 C   0  0  0  0  0
    5.1707   -3.6262   -3.8228 S   0  0  0  0  0
    6.6707   -3.6168   -3.8286 C   0  0  0  0  0
    7.1728   -4.2983   -2.5902 H   0  0  0  0  0
    7.1901   -4.3610   -5.0229 C   0  0  0  0  0
    6.8298   -5.8033   -5.2228 C   0  0  0  0  0
    7.3492   -6.5475   -6.4171 C   0  0  0  0  0
    6.9890   -7.9898   -6.6170 C   0  0  0  0  0
    7.5084   -8.7340   -7.8113 C   0  0  0  0  0
    7.1481  -10.1763   -8.0112 C   0  0  0  0  0
    7.6675  -10.9205   -9.2055 C   0  0  0  0  0
    7.1661  -12.3338   -9.1718 C   0  0  0  0  0
    7.5464  -13.2908  -10.2625 C   0  0  0  0  0
    7.0450  -14.7041  -10.2288 C   0  0  0  0  0
    7.5644  -15.4483  -11.4231 C   0  0  0  0  0
    7.0629  -16.8616  -11.3893 C   0  0  0  0  0
    7.5823  -17.6058  -12.5837 C   0  0  0  0  0
    7.0809  -19.0191  -12.5499 C   0  0  0  0  0
    7.1624   -2.1998   -3.8454 C   0  0  0  0  0
    6.6603   -1.5183   -5.0837 H   0  0  0  0  0
    6.6431   -1.4556   -2.6511 O   0  0  0  0  0
    8.6624   -2.1904   -3.8512 C   0  0  0  0  0
    9.1542   -0.7734   -3.8681 C   0  0  0  0  0
   10.6541   -0.7640   -3.8739 C   0  0  0  0  0
   11.1459    0.6530   -3.8907 C   0  0  0  0  0
   10.1645    1.7875   -3.8990 O   0  0  0  0  0
   12.6190    0.9356   -3.8993 O   0  0  0  0  0
    2.6686   -6.4630   -3.7832 C   0  0  0  0  0
    1.7798   -6.9257   -2.6670 O   0  0  0  0  0
    3.0470   -7.4108   -4.8826 N   0  0  0  0  0
    2.5366   -8.8212   -4.8657 C   0  0  0  0  0
    3.0559   -9.5560   -6.0659 C   0  0  0  0  0
    3.9438   -8.8530   -7.0495 O   0  0  0  0  0
    2.6874  -10.9938   -6.2824 O   0  0  0  0  0
    3.0007    1.4140    0.0000 C   0  0  0  0  0
    2.0265    2.5546    0.0000 O   0  0  0  0  0
    4.4756    1.6873    0.0000 O   0  0  0  0  0
  1  2  1  0  0  0
  2 45  1  0  0  0
  2  4  1  0  0  0
  2  3  1  0  0  0
  4  5  1  0  0  0
  5  6  1  0  0  0
  6  8  1  0  0  0
  6  7  2  0  0  0
  8  9  1  0  0  0
  9 38  1  0  0  0
  9 11  1  0  0  0
  9 10  1  0  0  0
 11 12  1  0  0  0
 12 13  1  0  0  0
 13 29  1  0  0  0
 13 15  1  0  0  0
 13 14  1  0  0  0
 15 16  2  0  0  0
 16 17  1  0  0  0
 17 18  2  0  0  0
 18 19  1  0  0  0
 19 20  2  0  0  0
 20 21  1  0  0  0
 21 22  1  0  0  0
 22 23  2  0  0  0
 23 24  1  0  0  0
 24 25  1  0  0  0
 25 26  1  0  0  0
 26 27  1  0  0  0
 27 28  1  0  0  0
 29 32  1  0  0  0
 29 31  1  0  0  0
 29 30  1  0  0  0
 32 33  1  0  0  0
 33 34  1  0  0  0
 34 35  1  0  0  0
 35 37  1  0  0  0
 35 36  2  0  0  0
 38 40  1  0  0  0
 38 39  2  0  0  0
 40 41  1  0  0  0
 41 42  1  0  0  0
 42 44  1  0  0  0
 42 43  2  0  0  0
 45 47  1  0  0  0
 45 46  2  0  0  0
M  END
> <SMILES>
[H]C(N)(CCC(=O)NC([H])(CSC([H])(C=CC=CC=CCC=CCCCCC)C([H])(O)CCCC(=O)O)C(=O)NCC(=O)O)C(=O)O

> <NAME>
LEUKOTRIENE-C4

> <BioCyc_link>
http://biocyc.org/HUMAN/NEW-IMAGE?object=LEUKOTRIENE-C4

> <BioCyc_name_HTML>
leukotriene-C4

> <CAS>
72025-60-6

> <KEGG_ID>
C02166

> <toxTree.tree.cramer.CramerTreeResult>


> <FORMULA>


> <toxTree.tree.cramer.CramerRules>


$$$$
5Z8Z10E14Z-12S-12-HYDROPEROXYICOS
 OpenBabel30120812303D

 25 24  0  0  0  0  0  0  0  0999 V2000
    1.0000    0.0000    0.0000 H   0  0  0  0  0
    2.5000    0.0000    0.0000 C   0  0  0  0  0
    2.9931   -0.6977    1.2329 C   0  0  0  0  0
    2.4869    0.0185    2.4498 C   0  0  0  0  0
    2.8421   -0.4840    3.8178 C   0  0  0  0  0
    2.3359    0.2322    5.0347 C   0  0  0  0  0
    2.8290   -0.4655    6.2676 C   0  0  0  0  0
    2.3228    0.2507    7.4845 C   0  0  0  0  0
    2.8159   -0.4470    8.7174 C   0  0  0  0  0
    2.3097    0.2692    9.9343 C   0  0  0  0  0
    3.0193   -0.7348   -1.2002 C   0  0  0  0  0
    2.6508   -2.1726   -1.4167 C   0  0  0  0  0
    3.1701   -2.9074   -2.6168 C   0  0  0  0  0
    2.8016   -4.3452   -2.8333 C   0  0  0  0  0
    3.3209   -5.0801   -4.0335 C   0  0  0  0  0
    2.8105   -6.4905   -4.0166 C   0  0  0  0  0
    3.1889   -7.4382   -5.1160 C   0  0  0  0  0
    2.6785   -8.8486   -5.0991 C   0  0  0  0  0
    3.1978   -9.5834   -6.2993 C   0  0  0  0  0
    2.6874  -10.9938   -6.2824 C   0  0  0  0  0
    3.2067  -11.7286   -7.4825 C   0  0  0  0  0
    4.0946  -11.0256   -8.4662 O   0  0  0  0  0
    2.8382  -13.1664   -7.6991 O   0  0  0  0  0
    3.0007    1.4140    0.0000 O   0  0  0  0  0
    4.5007    1.4140    0.0000 O   0  0  0  0  0
  1  2  1  0  0  0
  2 24  1  0  0  0
  2 11  1  0  0  0
  2  3  1  0  0  0
  3  4  1  0  0  0
  4  5  2  0  0  0
  5  6  1  0  0  0
  6  7  1  0  0  0
  7  8  1  0  0  0
  8  9  1  0  0  0
  9 10  1  0  0  0
 11 12  2  0  0  0
 12 13  1  0  0  0
 13 14  2  0  0  0
 14 15  1  0  0  0
 15 16  1  0  0  0
 16 17  2  0  0  0
 17 18  1  0  0  0
 18 19  1  0  0  0
 19 20  1  0  0  0
 20 21  1  0  0  0
 21 23  1  0  0  0
 21 22  2  0  0  0
 24 25  1  0  0  0
M  END
> <SMILES>
[H]C(CC=CCCCCC)(C=CC=CCC=CCCCC(=O)O)OO

> <NAME>
5Z8Z10E14Z-12S-12-HYDROPEROXYICOS

> <BioCyc_link>
http://biocyc.org/HUMAN/NEW-IMAGE?object=5Z8Z10E14Z-12S-12-HYDROPEROXYICOS

> <BioCyc_name_HTML>
(5Z,8Z,10E,14Z)-(12S)-12-hydroperoxyicosa-5,8,10,14-tetraenoate

> <CAS>


> <KEGG_ID>
C05965

> <toxTree.tree.cramer.CramerTreeResult>


> <FORMULA>


> <toxTree.tree.cramer.CramerRules>


$$$$
5Z8Z11Z13E-15S-15-HYDROPEROXYICOS
 OpenBabel30120812303D

 25 24  0  0  0  0  0  0  0  0999 V2000
    1.0000    0.0000    0.0000 H   0  0  0  0  0
    2.5000    0.0000    0.0000 C   0  0  0  0  0
    2.9931   -0.6977    1.2329 C   0  0  0  0  0
    2.4869    0.0185    2.4498 C   0  0  0  0  0
    2.9800   -0.6792    3.6827 C   0  0  0  0  0
    2.4738    0.0370    4.8996 C   0  0  0  0  0
    2.9669   -0.6607    6.1326 C   0  0  0  0  0
    3.0193   -0.7348   -1.2002 C   0  0  0  0  0
    2.6508   -2.1726   -1.4167 C   0  0  0  0  0
    3.1701   -2.9074   -2.6168 C   0  0  0  0  0
    2.8016   -4.3452   -2.8333 C   0  0  0  0  0
    3.3209   -5.0801   -4.0335 C   0  0  0  0  0
    2.8105   -6.4905   -4.0166 C   0  0  0  0  0
    3.1889   -7.4382   -5.1160 C   0  0  0  0  0
    2.6785   -8.8486   -5.0991 C   0  0  0  0  0
    3.1978   -9.5834   -6.2993 C   0  0  0  0  0
    2.8293  -11.0212   -6.5158 C   0  0  0  0  0
    3.3486  -11.7560   -7.7159 C   0  0  0  0  0
    2.8382  -13.1664   -7.6991 C   0  0  0  0  0
    3.3575  -13.9012   -8.8992 C   0  0  0  0  0
    2.8471  -15.3116   -8.8823 C   0  0  0  0  0
    1.9583  -15.7743   -7.7661 O   0  0  0  0  0
    3.2256  -16.2594   -9.9817 O   0  0  0  0  0
    3.0007    1.4140    0.0000 O   0  0  0  0  0
    4.5007    1.4140    0.0000 O   0  0  0  0  0
  1  2  1  0  0  0
  2 24  1  0  0  0
  2  8  1  0  0  0
  2  3  1  0  0  0
  3  4  1  0  0  0
  4  5  1  0  0  0
  5  6  1  0  0  0
  6  7  1  0  0  0
  8  9  2  0  0  0
  9 10  1  0  0  0
 10 11  2  0  0  0
 11 12  1  0  0  0
 12 13  1  0  0  0
 13 14  2  0  0  0
 14 15  1  0  0  0
 15 16  1  0  0  0
 16 17  2  0  0  0
 17 18  1  0  0  0
 18 19  1  0  0  0
 19 20  1  0  0  0
 20 21  1  0  0  0
 21 23  1  0  0  0
 21 22  2  0  0  0
 24 25  1  0  0  0
M  END
> <SMILES>
[H]C(CCCCC)(C=CC=CCC=CCC=CCCCC(=O)O)OO

> <NAME>
5Z8Z11Z13E-15S-15-HYDROPEROXYICOS

> <BioCyc_link>
http://biocyc.org/HUMAN/NEW-IMAGE?object=5Z8Z11Z13E-15S-15-HYDROPEROXYICOS

> <BioCyc_name_HTML>
(5Z,8Z,11Z,13E)-(15S)-15-hydroperoxyicosa-5,8,11,13-tetraenoate

> <CAS>


> <KEGG_ID>
C05966

> <toxTree.tree.cramer.CramerTreeResult>


> <FORMULA>


> <toxTree.tree.cramer.CramerRules>


$$$$
CREATINE
 OpenBabel30120812303D

  9  8  0  0  0  0  0  0  0  0999 V2000
    1.0000    0.0000    0.0000 C   0  0  0  0  0
    2.5000    0.0000    0.0000 N   0  0  0  0  0
    3.2500   -1.2990    0.0000 C   0  0  0  0  0
    2.2758   -2.4396    0.0000 C   0  0  0  0  0
    0.8009   -2.1663    0.0000 O   0  0  0  0  0
    2.7765   -3.8536    0.0000 O   0  0  0  0  0
    3.2500    1.2990    0.0000 C   0  0  0  0  0
    2.5000    2.5981    0.0000 N   0  0  0  0  0
    4.7500    1.2990    0.0000 N   0  0  0  0  0
  1  2  1  0  0  0
  2  7  1  0  0  0
  2  3  1  0  0  0
  3  4  1  0  0  0
  4  6  1  0  0  0
  4  5  2  0  0  0
  7  9  1  0  0  0
  7  8  2  0  0  0
M  END
> <SMILES>
CN(CC(=O)O)C(=N)N

> <NAME>
CREATINE

> <BioCyc_link>
http://biocyc.org/HUMAN/NEW-IMAGE?object=CREATINE

> <BioCyc_name_HTML>
creatine

> <CAS>
57-00-1

> <KEGG_ID>
C00300

> <toxTree.tree.cramer.CramerTreeResult>


> <FORMULA>


> <toxTree.tree.cramer.CramerRules>


$$$$
ARG
 OpenBabel30120812303D

 13 12  0  0  0  0  0  0  0  0999 V2000
    1.0000    0.0000    0.0000 H   0  0  0  0  0
    2.5000    0.0000    0.0000 C   0  0  0  0  0
    2.9931   -0.6977    1.2329 N   0  0  0  0  0
    3.0193   -0.7348   -1.2002 C   0  0  0  0  0
    2.5089   -2.1452   -1.1833 C   0  0  0  0  0
    3.0282   -2.8800   -2.3834 C   0  0  0  0  0
    2.5178   -4.2904   -2.3666 N   0  0  0  0  0
    2.8962   -5.2382   -3.4659 C   0  0  0  0  0
    3.7851   -4.7755   -4.5821 N   0  0  0  0  0
    2.3858   -6.6485   -3.4490 N   0  0  0  0  0
    3.0007    1.4140    0.0000 C   0  0  0  0  0
    2.0265    2.5546    0.0000 O   0  0  0  0  0
    4.4756    1.6873    0.0000 O   0  0  0  0  0
  1  2  1  0  0  0
  2 11  1  0  0  0
  2  4  1  0  0  0
  2  3  1  0  0  0
  4  5  1  0  0  0
  5  6  1  0  0  0
  6  7  1  0  0  0
  7  8  2  0  0  0
  8 10  1  0  0  0
  8  9  1  0  0  0
 11 13  1  0  0  0
 11 12  2  0  0  0
M  END
> <SMILES>
[H]C(N)(CCCN=C(N)N)C(=O)O

> <NAME>
ARG

> <BioCyc_link>
http://biocyc.org/HUMAN/NEW-IMAGE?object=ARG

> <BioCyc_name_HTML>
L-arginine

> <CAS>
74-79-3

> <KEGG_ID>
C00062

> <toxTree.tree.cramer.CramerTreeResult>


> <FORMULA>


> <toxTree.tree.cramer.CramerRules>


$$$$
OXIDIZED-GLUTATHIONE
 OpenBabel30120812303D

 44 43  0  0  0  0  0  0  0  0999 V2000
    1.0000    0.0000    0.0000 H   0  0  0  0  0
    2.5000    0.0000    0.0000 C   0  0  0  0  0
    2.9931   -0.6977    1.2329 N   0  0  0  0  0
    3.0193   -0.7348   -1.2002 C   0  0  0  0  0
    2.5089   -2.1452   -1.1833 C   0  0  0  0  0
    3.0282   -2.8800   -2.3834 C   0  0  0  0  0
    3.9161   -2.1770   -3.3671 O   0  0  0  0  0
    2.6597   -4.3178   -2.6000 N   0  0  0  0  0
    3.1790   -5.0526   -3.8001 C   0  0  0  0  0
    2.6959   -4.3683   -5.0444 H   0  0  0  0  0
    4.6790   -5.0432   -3.8059 C   0  0  0  0  0
    5.1707   -3.6262   -3.8228 S   0  0  0  0  0
    6.6707   -3.6168   -3.8286 S   0  0  0  0  0
    7.1624   -2.1998   -3.8454 C   0  0  0  0  0
    8.6624   -2.1904   -3.8512 C   0  0  0  0  0
    9.1646   -2.8719   -2.6129 H   0  0  0  0  0
    9.1818   -2.9346   -5.0455 N   0  0  0  0  0
    8.8216   -4.3769   -5.2454 C   0  0  0  0  0
    7.9419   -5.0750   -4.2510 O   0  0  0  0  0
    9.3410   -5.1211   -6.4397 C   0  0  0  0  0
    8.8395   -6.5344   -6.4060 C   0  0  0  0  0
    9.3589   -7.2786   -7.6003 C   0  0  0  0  0
    8.8668   -6.6105   -8.8499 H   0  0  0  0  0
   10.8588   -7.2598   -7.6120 N   0  0  0  0  0
    8.8575   -8.6919   -7.5666 C   0  0  0  0  0
    7.9759   -9.1483   -6.4421 O   0  0  0  0  0
    9.2378   -9.6489   -8.6573 O   0  0  0  0  0
    9.1542   -0.7734   -3.8681 C   0  0  0  0  0
    8.1728    0.3610   -3.8764 O   0  0  0  0  0
   10.6273   -0.4908   -3.8767 N   0  0  0  0  0
   11.1190    0.9262   -3.8935 C   0  0  0  0  0
   12.6190    0.9356   -3.8993 C   0  0  0  0  0
   13.3772   -0.3586   -3.8885 O   0  0  0  0  0
   13.3608    2.2393   -3.9159 O   0  0  0  0  0
    2.6686   -6.4630   -3.7832 C   0  0  0  0  0
    1.7798   -6.9257   -2.6670 O   0  0  0  0  0
    3.0470   -7.4108   -4.8826 N   0  0  0  0  0
    2.5366   -8.8212   -4.8657 C   0  0  0  0  0
    3.0559   -9.5560   -6.0659 C   0  0  0  0  0
    3.9438   -8.8530   -7.0495 O   0  0  0  0  0
    2.6874  -10.9938   -6.2824 O   0  0  0  0  0
    3.0007    1.4140    0.0000 C   0  0  0  0  0
    2.0265    2.5546    0.0000 O   0  0  0  0  0
    4.4756    1.6873    0.0000 O   0  0  0  0  0
  1  2  1  0  0  0
  2 42  1  0  0  0
  2  4  1  0  0  0
  2  3  1  0  0  0
  4  5  1  0  0  0
  5  6  1  0  0  0
  6  8  1  0  0  0
  6  7  2  0  0  0
  8  9  1  0  0  0
  9 35  1  0  0  0
  9 11  1  0  0  0
  9 10  1  0  0  0
 11 12  1  0  0  0
 12 13  1  0  0  0
 13 14  1  0  0  0
 14 15  1  0  0  0
 15 28  1  0  0  0
 15 17  1  0  0  0
 15 16  1  0  0  0
 17 18  1  0  0  0
 18 20  1  0  0  0
 18 19  2  0  0  0
 20 21  1  0  0  0
 21 22  1  0  0  0
 22 25  1  0  0  0
 22 24  1  0  0  0
 22 23  1  0  0  0
 25 27  1  0  0  0
 25 26  2  0  0  0
 28 30  1  0  0  0
 28 29  2  0  0  0
 30 31  1  0  0  0
 31 32  1  0  0  0
 32 34  1  0  0  0
 32 33  2  0  0  0
 35 37  1  0  0  0
 35 36  2  0  0  0
 37 38  1  0  0  0
 38 39  1  0  0  0
 39 41  1  0  0  0
 39 40  2  0  0  0
 42 44  1  0  0  0
 42 43  2  0  0  0
M  END
> <SMILES>
[H]C(N)(CCC(=O)NC([H])(CSSCC([H])(NC(=O)CCC([H])(N)C(=O)O)C(=O)NCC(=O)O)C(=O)NCC(=O)O)C(=O)O

> <NAME>
OXIDIZED-GLUTATHIONE

> <BioCyc_link>
http://biocyc.org/HUMAN/NEW-IMAGE?object=OXIDIZED-GLUTATHIONE

> <BioCyc_name_HTML>
glutathione

> <CAS>
27025-41-8

> <KEGG_ID>
C00127

> <toxTree.tree.cramer.CramerTreeResult>


> <FORMULA>


> <toxTree.tree.cramer.CramerRules>


$$$$
ACETYL-GLU
 OpenBabel30120812303D

 14 13  0  0  0  0  0  0  0  0999 V2000
    1.0000    0.0000    0.0000 H   0  0  0  0  0
    2.5000    0.0000    0.0000 C   0  0  0  0  0
    2.9931   -0.6977    1.2329 C   0  0  0  0  0
    2.4869    0.0185    2.4498 C   0  0  0  0  0
    2.9800   -0.6792    3.6827 C   0  0  0  0  0
    3.8428   -1.9000    3.5593 O   0  0  0  0  0
    2.6103   -0.1561    5.0391 O   0  0  0  0  0
    3.0193   -0.7348   -1.2002 N   0  0  0  0  0
    2.6508   -2.1726   -1.4167 C   0  0  0  0  0
    1.7630   -2.8756   -0.4330 C   0  0  0  0  0
    3.1701   -2.9074   -2.6168 O   0  0  0  0  0
    3.0007    1.4140    0.0000 C   0  0  0  0  0
    2.0265    2.5546    0.0000 O   0  0  0  0  0
    4.4756    1.6873    0.0000 O   0  0  0  0  0
  1  2  1  0  0  0
  2 12  1  0  0  0
  2  8  1  0  0  0
  2  3  1  0  0  0
  3  4  1  0  0  0
  4  5  1  0  0  0
  5  7  1  0  0  0
  5  6  2  0  0  0
  8  9  1  0  0  0
  9 11  2  0  0  0
  9 10  1  0  0  0
 12 14  1  0  0  0
 12 13  2  0  0  0
M  END
> <SMILES>
[H]C(CCC(=O)O)(NC(C)=O)C(=O)O

> <NAME>
ACETYL-GLU

> <BioCyc_link>
http://biocyc.org/HUMAN/NEW-IMAGE?object=ACETYL-GLU

> <BioCyc_name_HTML>
<i>N</i>-acetyl-L-glutamate

> <CAS>
1188-37-0

> <KEGG_ID>
C00624

> <toxTree.tree.cramer.CramerTreeResult>


> <FORMULA>


> <toxTree.tree.cramer.CramerRules>


$$$$
GUANIDOACETIC_ACID
 OpenBabel30120812303D

  8  7  0  0  0  0  0  0  0  0999 V2000
    1.0000    0.0000    0.0000 N   0  0  0  0  0
    2.5000    0.0000    0.0000 C   0  0  0  0  0
    3.2500   -1.2990    0.0000 N   0  0  0  0  0
    3.2500    1.2990    0.0000 N   0  0  0  0  0
    4.7500    1.2990    0.0000 C   0  0  0  0  0
    5.2507    2.7130    0.0000 C   0  0  0  0  0
    4.2765    3.8536    0.0000 O   0  0  0  0  0
    6.7256    2.9864    0.0000 O   0  0  0  0  0
  1  2  1  0  0  0
  2  4  2  0  0  0
  2  3  1  0  0  0
  4  5  1  0  0  0
  5  6  1  0  0  0
  6  8  1  0  0  0
  6  7  2  0  0  0
M  END
> <SMILES>
NC(N)=NCC(=O)O

> <NAME>
GUANIDOACETIC_ACID

> <BioCyc_link>
http://biocyc.org/HUMAN/NEW-IMAGE?object=GUANIDOACETIC_ACID

> <BioCyc_name_HTML>
guanidinoacetate

> <CAS>
352-97-6

> <KEGG_ID>
C00581

> <toxTree.tree.cramer.CramerTreeResult>


> <FORMULA>


> <toxTree.tree.cramer.CramerRules>


$$$$
HYDROGEN-PEROXIDE
 OpenBabel30120812303D

  2  1  0  0  0  0  0  0  0  0999 V2000
    1.0000    0.0000    0.0000 O   0  0  0  0  0
    2.5000    0.0000    0.0000 O   0  0  0  0  0
  1  2  1  0  0  0
M  END
> <SMILES>
OO

> <NAME>
HYDROGEN-PEROXIDE

> <BioCyc_link>
http://biocyc.org/HUMAN/NEW-IMAGE?object=HYDROGEN-PEROXIDE

> <BioCyc_name_HTML>
H<SUB>2</SUB>O<SUB>2</SUB>

> <CAS>
7722-84-1

> <KEGG_ID>
C00027

> <toxTree.tree.cramer.CramerTreeResult>


> <FORMULA>


> <toxTree.tree.cramer.CramerRules>


$$$$
CARBAMYUL-L-ASPARTATE
 OpenBabel30120812303D

 13 12  0  0  0  0  0  0  0  0999 V2000
    1.0000    0.0000    0.0000 H   0  0  0  0  0
    2.5000    0.0000    0.0000 C   0  0  0  0  0
    2.9931   -0.6977    1.2329 C   0  0  0  0  0
    2.4869    0.0185    2.4498 C   0  0  0  0  0
    1.6256    1.2372    2.2988 O   0  0  0  0  0
    2.8421   -0.4840    3.8178 O   0  0  0  0  0
    3.0193   -0.7348   -1.2002 N   0  0  0  0  0
    2.6508   -2.1726   -1.4167 C   0  0  0  0  0
    1.7630   -2.8756   -0.4330 N   0  0  0  0  0
    3.1701   -2.9074   -2.6168 O   0  0  0  0  0
    3.0007    1.4140    0.0000 C   0  0  0  0  0
    2.0265    2.5546    0.0000 O   0  0  0  0  0
    4.4756    1.6873    0.0000 O   0  0  0  0  0
  1  2  1  0  0  0
  2 11  1  0  0  0
  2  7  1  0  0  0
  2  3  1  0  0  0
  3  4  1  0  0  0
  4  6  1  0  0  0
  4  5  2  0  0  0
  7  8  1  0  0  0
  8 10  2  0  0  0
  8  9  1  0  0  0
 11 13  1  0  0  0
 11 12  2  0  0  0
M  END
> <SMILES>
[H]C(CC(=O)O)(NC(N)=O)C(=O)O

> <NAME>
CARBAMYUL-L-ASPARTATE

> <BioCyc_link>
http://biocyc.org/HUMAN/NEW-IMAGE?object=CARBAMYUL-L-ASPARTATE

> <BioCyc_name_HTML>
<i>N</i>-carbamoyl-L-aspartate

> <CAS>
16649-79-9

> <KEGG_ID>
C00438

> <toxTree.tree.cramer.CramerTreeResult>


> <FORMULA>


> <toxTree.tree.cramer.CramerRules>


$$$$
L-CITRULLINE
 OpenBabel30120812303D

 13 12  0  0  0  0  0  0  0  0999 V2000
    1.0000    0.0000    0.0000 H   0  0  0  0  0
    2.5000    0.0000    0.0000 C   0  0  0  0  0
    2.9931   -0.6977    1.2329 N   0  0  0  0  0
    3.0193   -0.7348   -1.2002 C   0  0  0  0  0
    2.5089   -2.1452   -1.1833 C   0  0  0  0  0
    3.0282   -2.8800   -2.3834 C   0  0  0  0  0
    2.5178   -4.2904   -2.3666 N   0  0  0  0  0
    2.8962   -5.2382   -3.4659 C   0  0  0  0  0
    3.7851   -4.7755   -4.5821 N   0  0  0  0  0
    2.3858   -6.6485   -3.4490 O   0  0  0  0  0
    3.0007    1.4140    0.0000 C   0  0  0  0  0
    2.0265    2.5546    0.0000 O   0  0  0  0  0
    4.4756    1.6873    0.0000 O   0  0  0  0  0
  1  2  1  0  0  0
  2 11  1  0  0  0
  2  4  1  0  0  0
  2  3  1  0  0  0
  4  5  1  0  0  0
  5  6  1  0  0  0
  6  7  1  0  0  0
  7  8  1  0  0  0
  8 10  2  0  0  0
  8  9  1  0  0  0
 11 13  1  0  0  0
 11 12  2  0  0  0
M  END
> <SMILES>
[H]C(N)(CCCNC(N)=O)C(=O)O

> <NAME>
L-CITRULLINE

> <BioCyc_link>
http://biocyc.org/HUMAN/NEW-IMAGE?object=L-CITRULLINE

> <BioCyc_name_HTML>
citrulline

> <CAS>
372-75-8

> <KEGG_ID>
C00327

> <toxTree.tree.cramer.CramerTreeResult>


> <FORMULA>


> <toxTree.tree.cramer.CramerRules>


$$$$
OXYGEN-MOLECULE
 OpenBabel30120812303D

  2  1  0  0  0  0  0  0  0  0999 V2000
    1.0000    0.0000    0.0000 O   0  0  0  0  0
    2.5000    0.0000    0.0000 O   0  0  0  0  0
  1  2  2  0  0  0
M  END
> <SMILES>
O=O

> <NAME>
OXYGEN-MOLECULE

> <BioCyc_link>
http://biocyc.org/HUMAN/NEW-IMAGE?object=OXYGEN-MOLECULE

> <BioCyc_name_HTML>
oxygen

> <CAS>
7782-44-7

> <KEGG_ID>
C00007

> <toxTree.tree.cramer.CramerTreeResult>


> <FORMULA>


> <toxTree.tree.cramer.CramerRules>


$$$$
5-AMINO-LEVULINATE
 OpenBabel30120812303D

  9  8  0  0  0  0  0  0  0  0999 V2000
    1.0000    0.0000    0.0000 N   0  0  0  0  0
    2.5000    0.0000    0.0000 C   0  0  0  0  0
    3.0007    1.4140    0.0000 C   0  0  0  0  0
    2.0265    2.5546    0.0000 O   0  0  0  0  0
    4.4756    1.6873    0.0000 C   0  0  0  0  0
    4.7102    3.1688    0.0000 C   0  0  0  0  0
    6.1851    3.4422    0.0000 C   0  0  0  0  0
    7.1593    2.3016    0.0000 O   0  0  0  0  0
    6.6858    4.8562    0.0000 O   0  0  0  0  0
  1  2  1  0  0  0
  2  3  1  0  0  0
  3  5  1  0  0  0
  3  4  2  0  0  0
  5  6  1  0  0  0
  6  7  1  0  0  0
  7  9  1  0  0  0
  7  8  2  0  0  0
M  END
> <SMILES>
NCC(=O)CCC(=O)O

> <NAME>
5-AMINO-LEVULINATE

> <BioCyc_link>
http://biocyc.org/HUMAN/NEW-IMAGE?object=5-AMINO-LEVULINATE

> <BioCyc_name_HTML>
5-amino-levulinate

> <CAS>
106-60-5

> <KEGG_ID>
C00430

> <toxTree.tree.cramer.CramerTreeResult>


> <FORMULA>


> <toxTree.tree.cramer.CramerRules>


$$$$
L-GLUTAMATE_GAMMA-SEMIALDEHYDE
 OpenBabel30120812303D

 10  9  0  0  0  0  0  0  0  0999 V2000
    1.0000    0.0000    0.0000 H   0  0  0  0  0
    2.5000    0.0000    0.0000 C   0  0  0  0  0
    2.9931   -0.6977    1.2329 N   0  0  0  0  0
    3.0193   -0.7348   -1.2002 C   0  0  0  0  0
    2.5089   -2.1452   -1.1833 C   0  0  0  0  0
    3.0282   -2.8800   -2.3834 C   0  0  0  0  0
    2.6597   -4.3178   -2.6000 O   0  0  0  0  0
    3.0007    1.4140    0.0000 C   0  0  0  0  0
    2.0265    2.5546    0.0000 O   0  0  0  0  0
    4.4756    1.6873    0.0000 O   0  0  0  0  0
  1  2  1  0  0  0
  2  8  1  0  0  0
  2  4  1  0  0  0
  2  3  1  0  0  0
  4  5  1  0  0  0
  5  6  1  0  0  0
  6  7  2  0  0  0
  8 10  1  0  0  0
  8  9  2  0  0  0
M  END
> <SMILES>
[H]C(N)(CCC=O)C(=O)O

> <NAME>
L-GLUTAMATE_GAMMA-SEMIALDEHYDE

> <BioCyc_link>
http://biocyc.org/HUMAN/NEW-IMAGE?object=L-GLUTAMATE_GAMMA-SEMIALDEHYDE

> <BioCyc_name_HTML>
L-glutamate

> <CAS>


> <KEGG_ID>
C01165

> <toxTree.tree.cramer.CramerTreeResult>


> <FORMULA>


> <toxTree.tree.cramer.CramerRules>


$$$$
AMINO-OXOBUT
 OpenBabel30120812303D

  9  8  0  0  0  0  0  0  0  0999 V2000
    1.0000    0.0000    0.0000 H   0  0  0  0  0
    2.5000    0.0000    0.0000 C   0  0  0  0  0
    2.9931   -0.6977    1.2329 N   0  0  0  0  0
    3.0193   -0.7348   -1.2002 C   0  0  0  0  0
    3.9071   -0.0318   -2.1838 C   0  0  0  0  0
    2.6508   -2.1726   -1.4167 O   0  0  0  0  0
    3.0007    1.4140    0.0000 C   0  0  0  0  0
    2.0265    2.5546    0.0000 O   0  0  0  0  0
    4.4756    1.6873    0.0000 O   0  0  0  0  0
  1  2  1  0  0  0
  2  7  1  0  0  0
  2  4  1  0  0  0
  2  3  1  0  0  0
  4  6  2  0  0  0
  4  5  1  0  0  0
  7  9  1  0  0  0
  7  8  2  0  0  0
M  END
> <SMILES>
[H]C(N)(C(C)=O)C(=O)O

> <NAME>
AMINO-OXOBUT

> <BioCyc_link>
http://biocyc.org/HUMAN/NEW-IMAGE?object=AMINO-OXOBUT

> <BioCyc_name_HTML>
2-amino-3-oxobutanoate

> <CAS>


> <KEGG_ID>
C03508

> <toxTree.tree.cramer.CramerTreeResult>


> <FORMULA>


> <toxTree.tree.cramer.CramerRules>


$$$$
L-ERYTHRO-4-HYDROXY-GLUTAMATE
 OpenBabel30120812303D

 13 12  0  0  0  0  0  0  0  0999 V2000
    1.0000    0.0000    0.0000 H   0  0  0  0  0
    2.5000    0.0000    0.0000 C   0  0  0  0  0
    2.9931   -0.6977    1.2329 N   0  0  0  0  0
    3.0193   -0.7348   -1.2002 C   0  0  0  0  0
    2.5089   -2.1452   -1.1833 C   0  0  0  0  0
    2.9920   -2.8295    0.0610 H   0  0  0  0  0
    1.0090   -2.1546   -1.1775 O   0  0  0  0  0
    3.0282   -2.8800   -2.3834 C   0  0  0  0  0
    3.9161   -2.1770   -3.3671 O   0  0  0  0  0
    2.6597   -4.3178   -2.6000 O   0  0  0  0  0
    3.0007    1.4140    0.0000 C   0  0  0  0  0
    2.0265    2.5546    0.0000 O   0  0  0  0  0
    4.4756    1.6873    0.0000 O   0  0  0  0  0
  1  2  1  0  0  0
  2 11  1  0  0  0
  2  4  1  0  0  0
  2  3  1  0  0  0
  4  5  1  0  0  0
  5  8  1  0  0  0
  5  7  1  0  0  0
  5  6  1  0  0  0
  8 10  1  0  0  0
  8  9  2  0  0  0
 11 13  1  0  0  0
 11 12  2  0  0  0
M  END
> <SMILES>
[H]C(N)(CC([H])(O)C(=O)O)C(=O)O

> <NAME>
L-ERYTHRO-4-HYDROXY-GLUTAMATE

> <BioCyc_link>
http://biocyc.org/HUMAN/NEW-IMAGE?object=L-ERYTHRO-4-HYDROXY-GLUTAMATE

> <BioCyc_name_HTML>
L-erythro-4-hydroxy-glutamate

> <CAS>


> <KEGG_ID>
C05947

> <toxTree.tree.cramer.CramerTreeResult>


> <FORMULA>


> <toxTree.tree.cramer.CramerRules>


$$$$
2-AMINOMUCONATE_SEMIALDEHYDE
 OpenBabel30120812303D

 10  9  0  0  0  0  0  0  0  0999 V2000
    1.0000    0.0000    0.0000 N   0  0  0  0  0
    2.5000    0.0000    0.0000 C   0  0  0  0  0
    3.2500   -1.2990    0.0000 C   0  0  0  0  0
    2.5000   -2.5981    0.0000 C   0  0  0  0  0
    3.2500   -3.8971    0.0000 C   0  0  0  0  0
    2.5000   -5.1962    0.0000 C   0  0  0  0  0
    3.2500   -6.4952    0.0000 O   0  0  0  0  0
    3.2500    1.2990    0.0000 C   0  0  0  0  0
    2.5000    2.5981    0.0000 O   0  0  0  0  0
    4.7500    1.2990    0.0000 O   0  0  0  0  0
  1  2  1  0  0  0
  2  8  1  0  0  0
  2  3  2  0  0  0
  3  4  1  0  0  0
  4  5  2  0  0  0
  5  6  1  0  0  0
  6  7  2  0  0  0
  8 10  1  0  0  0
  8  9  2  0  0  0
M  END
> <SMILES>
NC(=CC=CC=O)C(=O)O

> <NAME>
2-AMINOMUCONATE_SEMIALDEHYDE

> <BioCyc_link>
http://biocyc.org/HUMAN/NEW-IMAGE?object=2-AMINOMUCONATE_SEMIALDEHYDE

> <BioCyc_name_HTML>
2-aminomuconate

> <CAS>


> <KEGG_ID>
C03824

> <toxTree.tree.cramer.CramerTreeResult>


> <FORMULA>


> <toxTree.tree.cramer.CramerRules>


$$$$
HOMO-CYS
 OpenBabel30120812303D

  9  8  0  0  0  0  0  0  0  0999 V2000
    1.0000    0.0000    0.0000 H   0  0  0  0  0
    2.5000    0.0000    0.0000 C   0  0  0  0  0
    2.9931   -0.6977    1.2329 N   0  0  0  0  0
    3.0193   -0.7348   -1.2002 C   0  0  0  0  0
    2.5089   -2.1452   -1.1833 C   0  0  0  0  0
    3.0282   -2.8800   -2.3834 S   0  0  0  0  0
    3.0007    1.4140    0.0000 C   0  0  0  0  0
    2.0265    2.5546    0.0000 O   0  0  0  0  0
    4.4756    1.6873    0.0000 O   0  0  0  0  0
  1  2  1  0  0  0
  2  7  1  0  0  0
  2  4  1  0  0  0
  2  3  1  0  0  0
  4  5  1  0  0  0
  5  6  1  0  0  0
  7  9  1  0  0  0
  7  8  2  0  0  0
M  END
> <SMILES>
[H]C(N)(CCS)C(=O)O

> <NAME>
HOMO-CYS

> <BioCyc_link>
http://biocyc.org/HUMAN/NEW-IMAGE?object=HOMO-CYS

> <BioCyc_name_HTML>
L-homocysteine

> <CAS>
454-28-4

> <KEGG_ID>
C00155

> <toxTree.tree.cramer.CramerTreeResult>


> <FORMULA>


> <toxTree.tree.cramer.CramerRules>


$$$$
OH-PYR
 OpenBabel30120812303D

  7  6  0  0  0  0  0  0  0  0999 V2000
    1.0000    0.0000    0.0000 O   0  0  0  0  0
    2.5000    0.0000    0.0000 C   0  0  0  0  0
    3.0007    1.4140    0.0000 C   0  0  0  0  0
    2.0265    2.5546    0.0000 O   0  0  0  0  0
    4.4756    1.6873    0.0000 C   0  0  0  0  0
    5.4498    0.5467    0.0000 O   0  0  0  0  0
    4.9763    3.1013    0.0000 O   0  0  0  0  0
  1  2  1  0  0  0
  2  3  1  0  0  0
  3  5  1  0  0  0
  3  4  2  0  0  0
  5  7  1  0  0  0
  5  6  2  0  0  0
M  END
> <SMILES>
OCC(=O)C(=O)O

> <NAME>
OH-PYR

> <BioCyc_link>
http://biocyc.org/HUMAN/NEW-IMAGE?object=OH-PYR

> <BioCyc_name_HTML>
hydroxypyruvate

> <CAS>
1113-60-6

> <KEGG_ID>
C00168

> <toxTree.tree.cramer.CramerTreeResult>


> <FORMULA>


> <toxTree.tree.cramer.CramerRules>


$$$$
3-MERCAPTO-PYRUVATE
 OpenBabel30120812303D

  7  6  0  0  0  0  0  0  0  0999 V2000
    1.0000    0.0000    0.0000 O   0  0  0  0  0
    2.5000    0.0000    0.0000 C   0  0  0  0  0
    3.2500   -1.2990    0.0000 O   0  0  0  0  0
    3.2500    1.2990    0.0000 C   0  0  0  0  0
    2.5000    2.5981    0.0000 O   0  0  0  0  0
    4.7500    1.2990    0.0000 C   0  0  0  0  0
    5.2507    2.7130    0.0000 S   0  0  0  0  0
  1  2  2  0  0  0
  2  4  1  0  0  0
  2  3  1  0  0  0
  4  6  1  0  0  0
  4  5  2  0  0  0
  6  7  1  0  0  0
M  END
> <SMILES>
O=C(O)C(=O)CS

> <NAME>
3-MERCAPTO-PYRUVATE

> <BioCyc_link>
http://biocyc.org/HUMAN/NEW-IMAGE?object=3-MERCAPTO-PYRUVATE

> <BioCyc_name_HTML>
3-mercaptopyruvate

> <CAS>
2464-23-5

> <KEGG_ID>
C00957

> <toxTree.tree.cramer.CramerTreeResult>


> <FORMULA>


> <toxTree.tree.cramer.CramerRules>


$$$$
PYRROLINE-HYDROXY-CARBOXYLATE
 OpenBabel30120812303D

  9  9  0  0  0  0  0  0  0  0999 V2000
    1.0000    0.0000    0.0000 O   0  0  0  0  0
    2.5000    0.0000    0.0000 C   0  0  0  0  0
    2.9748    1.1495    0.6251 C   0  0  0  0  0
    3.7429    0.8913    1.6339 N   0  0  0  0  0
    3.8304   -0.6170    1.7472 C   0  0  0  0  0
    2.9610   -1.1152    0.6087 C   0  0  0  0  0
    5.2453   -1.0932    1.6009 C   0  0  0  0  0
    6.3499   -0.1040    1.3740 O   0  0  0  0  0
    5.5556   -2.5585    1.6814 O   0  0  0  0  0
  1  2  1  0  0  0
  2  6  1  0  0  0
  2  3  1  0  0  0
  3  4  2  0  0  0
  4  5  1  0  0  0
  5  6  1  0  0  0
  5  7  1  0  0  0
  7  9  1  0  0  0
  7  8  2  0  0  0
M  END
> <SMILES>
OC1C=NC(C1)C(=O)O

> <NAME>
PYRROLINE-HYDROXY-CARBOXYLATE

> <BioCyc_link>
http://biocyc.org/HUMAN/NEW-IMAGE?object=PYRROLINE-HYDROXY-CARBOXYLATE

> <BioCyc_name_HTML>
pyrroline-hydroxy-carboxylate

> <CAS>


> <KEGG_ID>
C04281

> <toxTree.tree.cramer.CramerTreeResult>


> <FORMULA>


> <toxTree.tree.cramer.CramerRules>


$$$$
4-IMIDAZOLONE-5-PROPIONATE
 OpenBabel30120812303D

 11 11  0  0  0  0  0  0  0  0999 V2000
    1.0000    0.0000    0.0000 O   0  0  0  0  0
    2.5000    0.0000    0.0000 C   0  0  0  0  0
    3.2500   -1.2990    0.0000 O   0  0  0  0  0
    3.2500    1.2990    0.0000 C   0  0  0  0  0
    4.7249    1.0257    0.0000 C   0  0  0  0  0
    5.4749    2.3247    0.0000 C   0  0  0  0  0
    5.2594    3.5793   -0.5632 N   0  0  0  0  0
    5.5645    4.5482    0.2383 C   0  0  0  0  0
    6.0557    3.9181    1.5255 N   0  0  0  0  0
    5.9525    2.4284    1.2601 C   0  0  0  0  0
    6.3049    1.3100    2.1954 O   0  0  0  0  0
  1  2  2  0  0  0
  2  4  1  0  0  0
  2  3  1  0  0  0
  4  5  1  0  0  0
  5  6  1  0  0  0
  6 10  1  0  0  0
  6  7  1  0  0  0
  7  8  2  0  0  0
  8  9  1  0  0  0
  9 10  1  0  0  0
 10 11  2  0  0  0
M  END
> <SMILES>
O=C(O)CCC1N=CNC1(=O)

> <NAME>
4-IMIDAZOLONE-5-PROPIONATE

> <BioCyc_link>
http://biocyc.org/HUMAN/NEW-IMAGE?object=4-IMIDAZOLONE-5-PROPIONATE

> <BioCyc_name_HTML>
4-imidazolone-5-propionate

> <CAS>
17340-16-8

> <KEGG_ID>
C03680

> <toxTree.tree.cramer.CramerTreeResult>


> <FORMULA>


> <toxTree.tree.cramer.CramerRules>


$$$$
CPD-7682
 OpenBabel30120812303D

  9  9  0  0  0  0  0  0  0  0999 V2000
    1.0000    0.0000    0.0000 O   0  0  0  0  0
    2.5000    0.0000    0.0000 C   0  0  0  0  0
    3.2500   -1.2990    0.0000 O   0  0  0  0  0
    3.2500    1.2990    0.0000 C   0  0  0  0  0
    2.9928    2.4547    0.6334 C   0  0  0  0  0
    3.2289    3.6472    0.0596 C   0  0  0  0  0
    3.7389    3.7142   -1.1885 C   0  0  0  0  0
    4.0279    2.4607   -1.8996 C   0  0  0  0  0
    3.7722    1.2804   -1.2620 N   0  0  0  0  0
  1  2  2  0  0  0
  2  4  1  0  0  0
  2  3  1  0  0  0
  4  5  1  0  0  0
  4  9  1  0  0  0
  5  6  1  0  0  0
  6  7  1  0  0  0
  7  8  1  0  0  0
  8  9  2  0  0  0
M  END
> <SMILES>
O=C(O)C1CCCC=N1

> <NAME>
CPD-7682

> <BioCyc_link>
http://biocyc.org/HUMAN/NEW-IMAGE?object=CPD-7682

> <BioCyc_name_HTML>
(<i>S</i>)-2,3,4,5-tetrahydropiperidine-2-carboxylate

> <CAS>


> <KEGG_ID>
C00450

> <toxTree.tree.cramer.CramerTreeResult>


> <FORMULA>


> <toxTree.tree.cramer.CramerRules>


$$$$
D-XYLULOSE
 OpenBabel30120812303D

 12 12  0  0  0  0  0  0  0  0999 V2000
    1.0000    0.0000    0.0000 H   0  0  0  0  0
    2.5000    0.0000    0.0000 C   0  0  0  0  0
    2.9034    0.1217   -1.4396 O   0  0  0  0  0
    3.0599    1.1537    0.8679 C   0  0  0  0  0
    4.4904    0.6582    1.2094 O   0  0  0  0  0
    4.3235   -0.8601    1.4286 C   0  0  0  0  0
    4.1957   -1.1812    2.8882 O   0  0  0  0  0
    5.5233   -1.6057    0.9241 C   0  0  0  0  0
    5.3310   -3.0759    1.1509 O   0  0  0  0  0
    3.0578   -1.2782    0.6595 C   0  0  0  0  0
    2.0467   -1.8906    1.5829 H   0  0  0  0  0
    3.3824   -2.3132   -0.3765 O   0  0  0  0  0
  1  2  1  0  0  0
  2 10  1  0  0  0
  2  4  1  0  0  0
  2  3  1  0  0  0
  4  5  1  0  0  0
  5  6  1  0  0  0
  6 10  1  0  0  0
  6  8  1  0  0  0
  6  7  1  0  0  0
  8  9  1  0  0  0
 10 12  1  0  0  0
 10 11  1  0  0  0
M  END
> <SMILES>
[H]C1(O)(COC(O)(CO)C1([H])(O))

> <NAME>
D-XYLULOSE

> <BioCyc_link>
http://biocyc.org/HUMAN/NEW-IMAGE?object=D-XYLULOSE

> <BioCyc_name_HTML>
D-xylulose

> <CAS>
551-84-8

> <KEGG_ID>
C00310

> <toxTree.tree.cramer.CramerTreeResult>


> <FORMULA>


> <toxTree.tree.cramer.CramerRules>


$$$$
DI-H-OROTATE
 OpenBabel30120812303D

 12 12  0  0  0  0  0  0  0  0999 V2000
    1.0000    0.0000    0.0000 H   0  0  0  0  0
    2.5000    0.0000    0.0000 C   0  0  0  0  0
    3.0315   -1.3200   -0.5633 C   0  0  0  0  0
    2.6379   -1.4463   -1.9315 C   0  0  0  0  0
    1.7689   -2.5623   -2.4309 O   0  0  0  0  0
    3.1450   -0.4160   -2.7815 N   0  0  0  0  0
    2.6181    0.9406   -2.3079 C   0  0  0  0  0
    1.8230    1.9031   -3.1394 O   0  0  0  0  0
    3.0321    1.1590   -0.8492 N   0  0  0  0  0
    2.9688    0.1628    1.4155 C   0  0  0  0  0
    1.9692    0.2906    2.5266 O   0  0  0  0  0
    4.4372    0.1978    1.7200 O   0  0  0  0  0
  1  2  1  0  0  0
  2  9  1  0  0  0
  2  3  1  0  0  0
  2 10  1  0  0  0
  3  4  1  0  0  0
  4  6  1  0  0  0
  4  5  2  0  0  0
  6  7  1  0  0  0
  7  9  1  0  0  0
  7  8  2  0  0  0
 10 12  1  0  0  0
 10 11  2  0  0  0
M  END
> <SMILES>
[H]C1(CC(=O)NC(=O)N1)C(=O)O

> <NAME>
DI-H-OROTATE

> <BioCyc_link>
http://biocyc.org/HUMAN/NEW-IMAGE?object=DI-H-OROTATE

> <BioCyc_name_HTML>
dihydroorotate

> <CAS>
155-54-4

> <KEGG_ID>
C00337

> <toxTree.tree.cramer.CramerTreeResult>


> <FORMULA>


> <toxTree.tree.cramer.CramerRules>


$$$$
L-DELTA1-PYRROLINE_5-CARBOXYLATE
 OpenBabel30120812303D

  9  9  0  0  0  0  0  0  0  0999 V2000
    1.0000    0.0000    0.0000 H   0  0  0  0  0
    2.5000    0.0000    0.0000 C   0  0  0  0  0
    2.9610   -1.1152    0.6087 C   0  0  0  0  0
    3.8304   -0.6170    1.7472 C   0  0  0  0  0
    3.7429    0.8913    1.6339 C   0  0  0  0  0
    2.9748    1.1495    0.6251 N   0  0  0  0  0
    2.9997   -0.0011   -1.4143 C   0  0  0  0  0
    2.0248   -0.0019   -2.5542 O   0  0  0  0  0
    4.4744   -0.0013   -1.6887 O   0  0  0  0  0
  1  2  1  0  0  0
  2  3  1  0  0  0
  2  6  1  0  0  0
  2  7  1  0  0  0
  3  4  1  0  0  0
  4  5  1  0  0  0
  5  6  2  0  0  0
  7  9  1  0  0  0
  7  8  2  0  0  0
M  END
> <SMILES>
[H]C1(CCC=N1)C(=O)O

> <NAME>
L-DELTA1-PYRROLINE_5-CARBOXYLATE

> <BioCyc_link>
http://biocyc.org/HUMAN/NEW-IMAGE?object=L-DELTA1-PYRROLINE_5-CARBOXYLATE

> <BioCyc_name_HTML>
(<i>S</i>)-1-pyrroline-5-carboxylate

> <CAS>
2906-39-0

> <KEGG_ID>
C03912

> <toxTree.tree.cramer.CramerTreeResult>


> <FORMULA>


> <toxTree.tree.cramer.CramerRules>


$$$$
PROSTAGLANDIN-H2
 OpenBabel30120812303D

 30 31  0  0  0  0  0  0  0  0999 V2000
    1.0000    0.0000    0.0000 H   0  0  0  0  0
    2.5000    0.0000    0.0000 C   0  0  0  0  0
    2.9931   -0.6977    1.2329 O   0  0  0  0  0
    3.0193   -0.7348   -1.2002 C   0  0  0  0  0
    2.5089   -2.1452   -1.1833 C   0  0  0  0  0
    3.0282   -2.8800   -2.3834 C   0  0  0  0  0
    2.5178   -4.2904   -2.3666 C   0  0  0  0  0
    3.0371   -5.0252   -3.5667 C   0  0  0  0  0
    3.0007    1.4140    0.0000 C   0  0  0  0  0
    4.4756    1.6873    0.0000 C   0  0  0  0  0
    4.9763    3.1013    0.0000 C   0  0  0  0  0
    4.5472    3.9542    1.1569 H   0  0  0  0  0
    5.9606    2.1210   -0.7062 C   0  0  0  0  0
    6.4090    0.9683    0.1424 H   0  0  0  0  0
    6.9817    3.0485   -1.2008 C   0  0  0  0  0
    6.1301    3.9760   -1.9504 C   0  0  0  0  0
    6.7886    5.1287   -2.6487 H   0  0  0  0  0
    5.3705    2.9957   -2.8942 O   0  0  0  0  0
    5.2532    1.7122   -2.0333 O   0  0  0  0  0
    5.0946    4.3848   -0.8608 C   0  0  0  0  0
    3.7832    4.8374   -1.4312 H   0  0  0  0  0
    5.5824    5.5477   -0.0485 C   0  0  0  0  0
    4.5543    5.9035    0.9842 C   0  0  0  0  0
    4.8037    7.0406    1.9301 C   0  0  0  0  0
    3.7757    7.3964    2.9628 C   0  0  0  0  0
    4.2635    8.5592    3.7751 C   0  0  0  0  0
    3.2354    8.9150    4.8078 C   0  0  0  0  0
    3.7232   10.0779    5.6201 C   0  0  0  0  0
    5.0612   10.6891    5.3265 O   0  0  0  0  0
    2.8730   10.6295    6.7259 O   0  0  0  0  0
  1  2  1  0  0  0
  2  9  1  0  0  0
  2  4  1  0  0  0
  2  3  1  0  0  0
  4  5  1  0  0  0
  5  6  1  0  0  0
  6  7  1  0  0  0
  7  8  1  0  0  0
  9 10  2  0  0  0
 10 11  1  0  0  0
 11 20  1  0  0  0
 11 13  1  0  0  0
 11 12  1  0  0  0
 13 19  1  0  0  0
 13 15  1  0  0  0
 13 14  1  0  0  0
 15 16  1  0  0  0
 16 20  1  0  0  0
 16 18  1  0  0  0
 16 17  1  0  0  0
 18 19  1  0  0  0
 20 22  1  0  0  0
 20 21  1  0  0  0
 22 23  1  0  0  0
 23 24  2  0  0  0
 24 25  1  0  0  0
 25 26  1  0  0  0
 26 27  1  0  0  0
 27 28  1  0  0  0
 28 30  1  0  0  0
 28 29  2  0  0  0
M  END
> <SMILES>
[H]C(O)(CCCCC)C=CC2([H])(C1([H])(CC([H])(OO1)C2([H])(CC=CCCCC(=O)O)))

> <NAME>
PROSTAGLANDIN-H2

> <BioCyc_link>
http://biocyc.org/HUMAN/NEW-IMAGE?object=PROSTAGLANDIN-H2

> <BioCyc_name_HTML>
prostaglandin-H2

> <CAS>
42935-17-1

> <KEGG_ID>
C00427

> <toxTree.tree.cramer.CramerTreeResult>


> <FORMULA>


> <toxTree.tree.cramer.CramerRules>


$$$$
5Z13E-15S-69-ALPHA-EPOXY-11-ALPHA
 OpenBabel30120812303D

 30 31  0  0  0  0  0  0  0  0999 V2000
    1.0000    0.0000    0.0000 H   0  0  0  0  0
    2.5000    0.0000    0.0000 C   0  0  0  0  0
    2.9931   -0.6977    1.2329 O   0  0  0  0  0
    3.0193   -0.7348   -1.2002 C   0  0  0  0  0
    2.5089   -2.1452   -1.1833 C   0  0  0  0  0
    3.0282   -2.8800   -2.3834 C   0  0  0  0  0
    2.5178   -4.2904   -2.3666 C   0  0  0  0  0
    3.0371   -5.0252   -3.5667 C   0  0  0  0  0
    3.0007    1.4140    0.0000 C   0  0  0  0  0
    4.4756    1.6873    0.0000 C   0  0  0  0  0
    4.9763    3.1013    0.0000 C   0  0  0  0  0
    5.7753    2.8846   -1.2509 H   0  0  0  0  0
    5.4011    3.3378    1.2517 C   0  0  0  0  0
    5.2376    2.0909    2.0692 H   0  0  0  0  0
    6.8528    3.7154    1.2441 O   0  0  0  0  0
    4.6074    4.4031    1.8447 C   0  0  0  0  0
    4.0273    5.2198    0.6742 C   0  0  0  0  0
    2.5541    5.4579    0.8258 H   0  0  0  0  0
    4.7769    6.5309    0.5613 O   0  0  0  0  0
    5.9070    6.2823   -0.1561 C   0  0  0  0  0
    7.2132    6.9985    0.0195 C   0  0  0  0  0
    8.3902    6.6322   -0.8352 C   0  0  0  0  0
    9.5644    7.4888   -0.4643 C   0  0  0  0  0
   10.7413    7.1225   -1.3190 C   0  0  0  0  0
   11.9155    7.9791   -0.9481 C   0  0  0  0  0
   11.7813    9.0067    0.1364 O   0  0  0  0  0
   13.2238    7.8082   -1.6616 O   0  0  0  0  0
    5.6602    5.2192   -1.1182 C   0  0  0  0  0
    4.4684    4.4077   -0.5760 C   0  0  0  0  0
    3.4256    4.1712   -1.6279 H   0  0  0  0  0
  1  2  1  0  0  0
  2  9  1  0  0  0
  2  4  1  0  0  0
  2  3  1  0  0  0
  4  5  1  0  0  0
  5  6  1  0  0  0
  6  7  1  0  0  0
  7  8  1  0  0  0
  9 10  2  0  0  0
 10 11  1  0  0  0
 11 13  1  0  0  0
 11 29  1  0  0  0
 11 12  1  0  0  0
 13 16  1  0  0  0
 13 15  1  0  0  0
 13 14  1  0  0  0
 16 17  1  0  0  0
 17 29  1  0  0  0
 17 19  1  0  0  0
 17 18  1  0  0  0
 19 20  1  0  0  0
 20 28  1  0  0  0
 20 21  2  0  0  0
 21 22  1  0  0  0
 22 23  1  0  0  0
 23 24  1  0  0  0
 24 25  1  0  0  0
 25 27  1  0  0  0
 25 26  2  0  0  0
 28 29  1  0  0  0
 29 30  1  0  0  0
M  END
> <SMILES>
[H]C(O)(CCCCC)C=CC2([H])(C([H])(O)CC1([H])(OC(=CCCCC(=O)O)CC12([H])))

> <NAME>
5Z13E-15S-69-ALPHA-EPOXY-11-ALPHA

> <BioCyc_link>
http://biocyc.org/HUMAN/NEW-IMAGE?object=5Z13E-15S-69-ALPHA-EPOXY-11-ALPHA

> <BioCyc_name_HTML>
(5z,13e)-(15s)-6,9-&alpha;-epoxy-11-&alpha;,15-dihydroxyprosta-5,13-dienoate

> <CAS>
35121-78-9

> <KEGG_ID>
C01312

> <toxTree.tree.cramer.CramerTreeResult>


> <FORMULA>


> <toxTree.tree.cramer.CramerRules>


$$$$
ALPHA11-ALPHA-EPOXY-15-HYDROXYTHROMBA
 OpenBabel30120812303D

 30 31  0  0  0  0  0  0  0  0999 V2000
    1.0000    0.0000    0.0000 H   0  0  0  0  0
    2.5000    0.0000    0.0000 C   0  0  0  0  0
    2.9931   -0.6977    1.2329 O   0  0  0  0  0
    3.0193   -0.7348   -1.2002 C   0  0  0  0  0
    2.5089   -2.1452   -1.1833 C   0  0  0  0  0
    3.0282   -2.8800   -2.3834 C   0  0  0  0  0
    2.5178   -4.2904   -2.3666 C   0  0  0  0  0
    3.0371   -5.0252   -3.5667 C   0  0  0  0  0
    3.0007    1.4140    0.0000 C   0  0  0  0  0
    4.4756    1.6873    0.0000 C   0  0  0  0  0
    4.9763    3.1013    0.0000 C   0  0  0  0  0
    3.9451    3.1455    1.0885 H   0  0  0  0  0
    5.4913    3.3979   -1.4154 O   0  0  0  0  0
    5.1906    4.8734   -1.7355 C   0  0  0  0  0
    5.1300    4.8740   -3.2343 H   0  0  0  0  0
    6.1080    5.8156   -0.9335 C   0  0  0  0  0
    5.1391    5.5741    0.2393 C   0  0  0  0  0
    5.0092    6.5175    1.3981 H   0  0  0  0  0
    4.0519    5.4075   -0.8423 O   0  0  0  0  0
    5.4301    4.2325    0.9340 C   0  0  0  0  0
    4.6852    4.1552    2.2337 H   0  0  0  0  0
    6.8932    4.1060    1.2398 C   0  0  0  0  0
    7.1516    2.7921    1.9158 C   0  0  0  0  0
    8.5457    2.4218    2.3274 C   0  0  0  0  0
    8.8041    1.1079    3.0033 C   0  0  0  0  0
   10.2672    0.9814    3.3091 C   0  0  0  0  0
   10.5256   -0.3325    3.9851 C   0  0  0  0  0
   11.9887   -0.4590    4.2908 C   0  0  0  0  0
   12.9314    0.6460    3.9165 O   0  0  0  0  0
   12.5090   -1.6906    4.9710 O   0  0  0  0  0
  1  2  1  0  0  0
  2  9  1  0  0  0
  2  4  1  0  0  0
  2  3  1  0  0  0
  4  5  1  0  0  0
  5  6  1  0  0  0
  6  7  1  0  0  0
  7  8  1  0  0  0
  9 10  2  0  0  0
 10 11  1  0  0  0
 11 20  1  0  0  0
 11 13  1  0  0  0
 11 12  1  0  0  0
 13 14  1  0  0  0
 14 16  1  0  0  0
 14 19  1  0  0  0
 14 15  1  0  0  0
 16 17  1  0  0  0
 17 20  1  0  0  0
 17 19  1  0  0  0
 17 18  1  0  0  0
 20 22  1  0  0  0
 20 21  1  0  0  0
 22 23  1  0  0  0
 23 24  2  0  0  0
 24 25  1  0  0  0
 25 26  1  0  0  0
 26 27  1  0  0  0
 27 28  1  0  0  0
 28 30  1  0  0  0
 28 29  2  0  0  0
M  END
> <SMILES>
[H]C(O)(CCCCC)C=CC2([H])(OC1([H])(CC([H])(O1)C2([H])(CC=CCCCC(=O)O)))

> <NAME>
ALPHA11-ALPHA-EPOXY-15-HYDROXYTHROMBA

> <BioCyc_link>
http://biocyc.org/HUMAN/NEW-IMAGE?object=ALPHA11-ALPHA-EPOXY-15-HYDROXYTHROMBA

> <BioCyc_name_HTML>
(5Z,13E)-(15S)-9&alpha;,11&alpha;-epoxy-15-hydroxythromboxa-5,13-dienoate

> <CAS>


> <KEGG_ID>
C02198

> <toxTree.tree.cramer.CramerTreeResult>


> <FORMULA>


> <toxTree.tree.cramer.CramerRules>


$$$$
ASCORBATE
 OpenBabel30120812303D

 14 14  0  0  0  0  0  0  0  0999 V2000
    1.0000    0.0000    0.0000 H   0  0  0  0  0
    2.5000    0.0000    0.0000 C   0  0  0  0  0
    2.9931   -0.6977    1.2329 O   0  0  0  0  0
    3.0193   -0.7348   -1.2002 C   0  0  0  0  0
    2.5089   -2.1452   -1.1833 O   0  0  0  0  0
    3.0007    1.4140    0.0000 C   0  0  0  0  0
    3.7144    0.8125    1.1743 H   0  0  0  0  0
    2.8227    2.5461    0.7164 O   0  0  0  0  0
    3.0171    3.6775   -0.0708 C   0  0  0  0  0
    2.8910    5.0799    0.4464 O   0  0  0  0  0
    3.3181    3.3907   -1.2961 C   0  0  0  0  0
    3.5904    4.3681   -2.4009 O   0  0  0  0  0
    3.3431    1.8796   -1.4022 C   0  0  0  0  0
    3.6375    1.0409   -2.6105 O   0  0  0  0  0
  1  2  1  0  0  0
  2  6  1  0  0  0
  2  4  1  0  0  0
  2  3  1  0  0  0
  4  5  1  0  0  0
  6  8  1  0  0  0
  6 13  1  0  0  0
  6  7  1  0  0  0
  8  9  1  0  0  0
  9 11  2  0  0  0
  9 10  1  0  0  0
 11 13  1  0  0  0
 11 12  1  0  0  0
 13 14  2  0  0  0
M  END
> <SMILES>
[H]C(O)(CO)C1([H])(OC(O)=C(O)C1(=O))

> <NAME>
ASCORBATE

> <BioCyc_link>
http://biocyc.org/HUMAN/NEW-IMAGE?object=ASCORBATE

> <BioCyc_name_HTML>
L-ascorbate

> <CAS>
50-81-7

> <KEGG_ID>
C00072

> <toxTree.tree.cramer.CramerTreeResult>


> <FORMULA>


> <toxTree.tree.cramer.CramerRules>


$$$$
5-OXOPROLINE
 OpenBabel30120812303D

 10 10  0  0  0  0  0  0  0  0999 V2000
    1.0000    0.0000    0.0000 H   0  0  0  0  0
    2.5000    0.0000    0.0000 C   0  0  0  0  0
    3.0599    1.1537    0.8679 C   0  0  0  0  0
    4.4904    0.6582    1.2094 C   0  0  0  0  0
    4.3235   -0.8601    1.4286 C   0  0  0  0  0
    5.2196   -1.7537    2.2338 O   0  0  0  0  0
    3.0578   -1.2782    0.6595 N   0  0  0  0  0
    2.9034    0.1217   -1.4396 C   0  0  0  0  0
    1.8539    0.2119   -2.5075 O   0  0  0  0  0
    4.3563    0.1531   -1.8113 O   0  0  0  0  0
  1  2  1  0  0  0
  2  7  1  0  0  0
  2  3  1  0  0  0
  2  8  1  0  0  0
  3  4  1  0  0  0
  4  5  1  0  0  0
  5  7  1  0  0  0
  5  6  2  0  0  0
  8 10  1  0  0  0
  8  9  2  0  0  0
M  END
> <SMILES>
[H]C1(CCC(=O)N1)C(=O)O

> <NAME>
5-OXOPROLINE

> <BioCyc_link>
http://biocyc.org/HUMAN/NEW-IMAGE?object=5-OXOPROLINE

> <BioCyc_name_HTML>
5-oxoproline

> <CAS>
98-79-3

> <KEGG_ID>
C01879

> <toxTree.tree.cramer.CramerTreeResult>


> <FORMULA>


> <toxTree.tree.cramer.CramerRules>


$$$$
GLUCURONATE
 OpenBabel30120812303D

 17 17  0  0  0  0  0  0  0  0999 V2000
    1.0000    0.0000    0.0000 H   0  0  0  0  0
    2.5000    0.0000    0.0000 C   0  0  0  0  0
    2.9688    0.1628    1.4155 O   0  0  0  0  0
    3.0315   -1.3200   -0.5633 C   0  0  0  0  0
    2.5069   -2.4752    0.2370 O   0  0  0  0  0
    2.6379   -1.4463   -1.9315 O   0  0  0  0  0
    3.1450   -0.4160   -2.7815 C   0  0  0  0  0
    2.6818   -0.6625   -4.1867 H   0  0  0  0  0
    4.6449   -0.4238   -2.7694 C   0  0  0  0  0
    5.3830   -1.4288   -1.9357 O   0  0  0  0  0
    5.4067    0.5734   -3.5911 O   0  0  0  0  0
    2.6181    0.9406   -2.3079 C   0  0  0  0  0
    1.1216    0.9571   -2.4091 H   0  0  0  0  0
    3.1588    2.0403   -3.1730 O   0  0  0  0  0
    3.0321    1.1590   -0.8492 C   0  0  0  0  0
    2.4525    2.4503   -0.3527 H   0  0  0  0  0
    4.5256    1.2439   -0.7383 O   0  0  0  0  0
  1  2  1  0  0  0
  2 15  1  0  0  0
  2  4  1  0  0  0
  2  3  1  0  0  0
  4  6  1  0  0  0
  4  5  1  0  0  0
  6  7  1  0  0  0
  7 12  1  0  0  0
  7  9  1  0  0  0
  7  8  1  0  0  0
  9 11  1  0  0  0
  9 10  2  0  0  0
 12 15  1  0  0  0
 12 14  1  0  0  0
 12 13  1  0  0  0
 15 17  1  0  0  0
 15 16  1  0  0  0
M  END
> <SMILES>
[H]C1(O)(C(O)OC([H])(C(=O)O)C([H])(O)C1([H])(O))

> <NAME>
GLUCURONATE

> <BioCyc_link>
http://biocyc.org/HUMAN/NEW-IMAGE?object=GLUCURONATE

> <BioCyc_name_HTML>
D-glucuronate

> <CAS>
576-37-4

> <KEGG_ID>
C00191

> <toxTree.tree.cramer.CramerTreeResult>


> <FORMULA>


> <toxTree.tree.cramer.CramerRules>


$$$$
OROTATE
 OpenBabel30120812303D

 11 11  0  0  0  0  0  0  0  0999 V2000
    1.0000    0.0000    0.0000 O   0  0  0  0  0
    2.5000    0.0000    0.0000 C   0  0  0  0  0
    3.2500   -1.2990    0.0000 O   0  0  0  0  0
    3.2500    1.2990    0.0000 C   0  0  0  0  0
    4.6289    1.2972    0.0150 C   0  0  0  0  0
    5.3263    2.5068    0.0271 C   0  0  0  0  0
    6.8261    2.5119    0.0500 O   0  0  0  0  0
    4.6209    3.7112    0.0179 N   0  0  0  0  0
    3.2421    3.6990   -0.0031 C   0  0  0  0  0
    2.4829    4.9927   -0.0131 O   0  0  0  0  0
    2.5567    2.4965   -0.0151 N   0  0  0  0  0
  1  2  2  0  0  0
  2  4  1  0  0  0
  2  3  1  0  0  0
  4 11  1  0  0  0
  4  5  2  0  0  0
  5  6  1  0  0  0
  6  8  1  0  0  0
  6  7  2  0  0  0
  8  9  1  0  0  0
  9 11  1  0  0  0
  9 10  2  0  0  0
M  END
> <SMILES>
O=C(O)C1=CC(=O)NC(=O)N1

> <NAME>
OROTATE

> <BioCyc_link>
http://biocyc.org/HUMAN/NEW-IMAGE?object=OROTATE

> <BioCyc_name_HTML>
orotate

> <CAS>
65-86-1

> <KEGG_ID>
C00295

> <toxTree.tree.cramer.CramerTreeResult>


> <FORMULA>


> <toxTree.tree.cramer.CramerRules>


$$$$
PYRIDOXAL
 OpenBabel30120812303D

 12 12  0  0  0  0  0  0  0  0999 V2000
    1.0000    0.0000    0.0000 C   0  0  0  0  0
    2.5000    0.0000    0.0000 C   0  0  0  0  0
    3.1879   -1.1952   -0.0000 N   0  0  0  0  0
    4.5842   -1.1944    0.0121 C   0  0  0  0  0
    5.2744    0.0187    0.0181 C   0  0  0  0  0
    6.7743    0.0301    0.0312 C   0  0  0  0  0
    7.2643    1.4478    0.0354 O   0  0  0  0  0
    4.5744    1.2069    0.0121 C   0  0  0  0  0
    5.3151    2.5113    0.0185 C   0  0  0  0  0
    4.5559    3.8049    0.0119 O   0  0  0  0  0
    3.1903    1.1993    0.0000 C   0  0  0  0  0
    2.4359    2.4957   -0.0131 O   0  0  0  0  0
  1  2  1  0  0  0
  2 11  1  0  0  0
  2  3  2  0  0  0
  3  4  1  0  0  0
  4  5  2  0  0  0
  5  8  1  0  0  0
  5  6  1  0  0  0
  6  7  1  0  0  0
  8 11  2  0  0  0
  8  9  1  0  0  0
  9 10  2  0  0  0
 11 12  1  0  0  0
M  END
> <SMILES>
CC1=NC=C(CO)C(C=O)=C1(O)

> <NAME>
PYRIDOXAL

> <BioCyc_link>
http://biocyc.org/HUMAN/NEW-IMAGE?object=PYRIDOXAL

> <BioCyc_name_HTML>
pyridoxal

> <CAS>
66-72-8

> <KEGG_ID>
C00250

> <toxTree.tree.cramer.CramerTreeResult>


> <FORMULA>


> <toxTree.tree.cramer.CramerRules>


$$$$
PYRIDOXINE
 OpenBabel30120812303D

 12 12  0  0  0  0  0  0  0  0999 V2000
    1.0000    0.0000    0.0000 C   0  0  0  0  0
    2.5000    0.0000    0.0000 C   0  0  0  0  0
    3.1879   -1.1952   -0.0000 N   0  0  0  0  0
    4.5842   -1.1944    0.0121 C   0  0  0  0  0
    5.2744    0.0187    0.0181 C   0  0  0  0  0
    6.7743    0.0301    0.0312 C   0  0  0  0  0
    7.2643    1.4478    0.0354 O   0  0  0  0  0
    4.5744    1.2069    0.0121 C   0  0  0  0  0
    5.3151    2.5113    0.0185 C   0  0  0  0  0
    4.3328    3.6449    0.0100 O   0  0  0  0  0
    3.1903    1.1993    0.0000 C   0  0  0  0  0
    2.4359    2.4957   -0.0131 O   0  0  0  0  0
  1  2  1  0  0  0
  2 11  1  0  0  0
  2  3  2  0  0  0
  3  4  1  0  0  0
  4  5  2  0  0  0
  5  8  1  0  0  0
  5  6  1  0  0  0
  6  7  1  0  0  0
  8 11  2  0  0  0
  8  9  1  0  0  0
  9 10  1  0  0  0
 11 12  1  0  0  0
M  END
> <SMILES>
CC1=NC=C(CO)C(CO)=C1(O)

> <NAME>
PYRIDOXINE

> <BioCyc_link>
http://biocyc.org/HUMAN/NEW-IMAGE?object=PYRIDOXINE

> <BioCyc_name_HTML>
pyridoxine

> <CAS>
65-23-6

> <KEGG_ID>
C00314

> <toxTree.tree.cramer.CramerTreeResult>


> <FORMULA>


> <toxTree.tree.cramer.CramerRules>


$$$$
QUINOLINATE
 OpenBabel30120812303D

 12 12  0  0  0  0  0  0  0  0999 V2000
    1.0000    0.0000    0.0000 O   0  0  0  0  0
    2.5000    0.0000    0.0000 C   0  0  0  0  0
    3.2500   -1.2990    0.0000 O   0  0  0  0  0
    3.2500    1.2990    0.0000 C   0  0  0  0  0
    4.6289    1.2972    0.0150 C   0  0  0  0  0
    5.3263    2.5068    0.0271 C   0  0  0  0  0
    4.6209    3.7112    0.0179 C   0  0  0  0  0
    3.2421    3.6990   -0.0031 N   0  0  0  0  0
    2.5567    2.4965   -0.0151 C   0  0  0  0  0
    1.0570    2.4913   -0.0444 C   0  0  0  0  0
    0.3027    3.7878   -0.0608 O   0  0  0  0  0
    0.3115    1.1897   -0.0574 O   0  0  0  0  0
  1  2  2  0  0  0
  2  4  1  0  0  0
  2  3  1  0  0  0
  4  9  2  0  0  0
  4  5  1  0  0  0
  5  6  2  0  0  0
  6  7  1  0  0  0
  7  8  2  0  0  0
  8  9  1  0  0  0
  9 10  1  0  0  0
 10 12  1  0  0  0
 10 11  2  0  0  0
M  END
> <SMILES>
O=C(O)C=1C=CC=NC=1(C(=O)O)

> <NAME>
QUINOLINATE

> <BioCyc_link>
http://biocyc.org/HUMAN/NEW-IMAGE?object=QUINOLINATE

> <BioCyc_name_HTML>
quinolinate

> <CAS>
89-00-9

> <KEGG_ID>
C03722

> <toxTree.tree.cramer.CramerTreeResult>


> <FORMULA>


> <toxTree.tree.cramer.CramerRules>


$$$$
UROCANATE
 OpenBabel30120812303D

 10 10  0  0  0  0  0  0  0  0999 V2000
    1.0000    0.0000    0.0000 O   0  0  0  0  0
    2.5000    0.0000    0.0000 C   0  0  0  0  0
    3.2500   -1.2990    0.0000 O   0  0  0  0  0
    3.2500    1.2990    0.0000 C   0  0  0  0  0
    4.7500    1.2990    0.0000 C   0  0  0  0  0
    5.5000    2.5981    0.0000 C   0  0  0  0  0
    4.9558    3.8392   -0.0119 C   0  0  0  0  0
    5.9993    4.7037    0.0043 N   0  0  0  0  0
    7.0937    3.9930    0.0182 C   0  0  0  0  0
    6.7971    2.7417    0.0115 N   0  0  0  0  0
  1  2  2  0  0  0
  2  4  1  0  0  0
  2  3  1  0  0  0
  4  5  2  0  0  0
  5  6  1  0  0  0
  6  7  2  0  0  0
  6 10  1  0  0  0
  7  8  1  0  0  0
  8  9  2  0  0  0
  9 10  1  0  0  0
M  END
> <SMILES>
O=C(O)C=CC1=CN=CN1

> <NAME>
UROCANATE

> <BioCyc_link>
http://biocyc.org/HUMAN/NEW-IMAGE?object=UROCANATE

> <BioCyc_name_HTML>
urocanate

> <CAS>
104-98-3

> <KEGG_ID>
C00785

> <toxTree.tree.cramer.CramerTreeResult>


> <FORMULA>


> <toxTree.tree.cramer.CramerRules>


$$$$
INDOLE_ACETALDEHYDE
 OpenBabel30120812303D

 12 13  0  0  0  0  0  0  0  0999 V2000
    1.0000    0.0000    0.0000 O   0  0  0  0  0
    2.5000    0.0000    0.0000 C   0  0  0  0  0
    3.2500    1.2990    0.0000 C   0  0  0  0  0
    4.7249    1.0257    0.0000 C   0  0  0  0  0
    5.3027   -0.1862    0.0004 C   0  0  0  0  0
    6.6965   -0.0479    0.0002 N   0  0  0  0  0
    6.9965    1.2348   -0.0006 C   0  0  0  0  0
    8.2385    2.0081   -0.0008 C   0  0  0  0  0
    8.1274    3.3871    0.0051 C   0  0  0  0  0
    6.8750    3.9916   -0.0017 C   0  0  0  0  0
    5.7534    3.3202   -0.0014 C   0  0  0  0  0
    5.7265    1.9765   -0.0004 C   0  0  0  0  0
  1  2  2  0  0  0
  2  3  1  0  0  0
  3  4  1  0  0  0
  4 12  1  0  0  0
  4  5  2  0  0  0
  5  6  1  0  0  0
  6  7  1  0  0  0
  7 12  1  0  0  0
  7  8  2  0  0  0
  8  9  1  0  0  0
  9 10  2  0  0  0
 10 11  1  0  0  0
 11 12  2  0  0  0
M  END
> <SMILES>
O=CCC1=CNC2=CC=CC=C12

> <NAME>
INDOLE_ACETALDEHYDE

> <BioCyc_link>
http://biocyc.org/HUMAN/NEW-IMAGE?object=INDOLE_ACETALDEHYDE

> <BioCyc_name_HTML>
indole

> <CAS>
2591-98-2

> <KEGG_ID>
C00637

> <toxTree.tree.cramer.CramerTreeResult>


> <FORMULA>


> <toxTree.tree.cramer.CramerRules>


$$$$
INDOLE_ACETATE_AUXIN
 OpenBabel30120812303D

 13 14  0  0  0  0  0  0  0  0999 V2000
    1.0000    0.0000    0.0000 O   0  0  0  0  0
    2.5000    0.0000    0.0000 C   0  0  0  0  0
    3.2500   -1.2990    0.0000 O   0  0  0  0  0
    3.2500    1.2990    0.0000 C   0  0  0  0  0
    4.7249    1.0257    0.0000 C   0  0  0  0  0
    5.3027   -0.1862    0.0004 C   0  0  0  0  0
    6.6965   -0.0479    0.0002 N   0  0  0  0  0
    6.9965    1.2348   -0.0006 C   0  0  0  0  0
    8.2385    2.0081   -0.0008 C   0  0  0  0  0
    8.1274    3.3871    0.0051 C   0  0  0  0  0
    6.8750    3.9916   -0.0017 C   0  0  0  0  0
    5.7534    3.3202   -0.0014 C   0  0  0  0  0
    5.7265    1.9765   -0.0004 C   0  0  0  0  0
  1  2  2  0  0  0
  2  4  1  0  0  0
  2  3  1  0  0  0
  4  5  1  0  0  0
  5 13  1  0  0  0
  5  6  2  0  0  0
  6  7  1  0  0  0
  7  8  1  0  0  0
  8 13  1  0  0  0
  8  9  2  0  0  0
  9 10  1  0  0  0
 10 11  2  0  0  0
 11 12  1  0  0  0
 12 13  2  0  0  0
M  END
> <SMILES>
O=C(O)CC1=CNC2=CC=CC=C12

> <NAME>
INDOLE_ACETATE_AUXIN

> <BioCyc_link>
http://biocyc.org/HUMAN/NEW-IMAGE?object=INDOLE_ACETATE_AUXIN

> <BioCyc_name_HTML>
indole-3-acetate

> <CAS>
87-51-4

> <KEGG_ID>
C00954

> <toxTree.tree.cramer.CramerTreeResult>


> <FORMULA>


> <toxTree.tree.cramer.CramerRules>


$$$$
10-FORMYL-THF
 OpenBabel30120812303D

 34 36  0  0  0  0  0  0  0  0999 V2000
    1.0000    0.0000    0.0000 N   0  0  0  0  0
    2.5000    0.0000    0.0000 C   0  0  0  0  0
    3.2026   -1.2058    0.0488 N   0  0  0  0  0
    4.5957   -1.1874    0.0565 C   0  0  0  0  0
    5.3574   -2.4781    0.1204 O   0  0  0  0  0
    5.2824    0.0151    0.0056 C   0  0  0  0  0
    6.7882   -0.0385    0.0189 N   0  0  0  0  0
    7.3774    1.2851   -0.4630 C   0  0  0  0  0
    6.7263    2.4223    0.3323 C   0  0  0  0  0
    5.2682    2.5428   -0.1071 N   0  0  0  0  0
    4.5835    1.2024   -0.0463 C   0  0  0  0  0
    3.1926    1.1886   -0.0481 N   0  0  0  0  0
    8.8652    1.2970   -0.2722 C   0  0  0  0  0
    9.4211    2.6050   -0.7519 N   0  0  0  0  0
    8.5027    3.6492   -1.3142 C   0  0  0  0  0
    7.0284    3.3855   -1.3967 O   0  0  0  0  0
   10.8954    2.8688   -0.6693 C   0  0  0  0  0
   11.7816    1.8134   -0.6186 C   0  0  0  0  0
   13.1531    2.0600   -0.5295 C   0  0  0  0  0
   13.6179    3.3758   -0.4984 C   0  0  0  0  0
   12.7215    4.4221   -0.5558 C   0  0  0  0  0
   11.3631    4.1709   -0.6441 C   0  0  0  0  0
   15.0893    3.6511   -0.4028 C   0  0  0  0  0
   16.0630    2.5117   -0.3405 O   0  0  0  0  0
   15.5871    5.0657   -0.3696 N   0  0  0  0  0
   17.0585    5.3410   -0.2740 C   0  0  0  0  0
   17.7802    4.7148   -1.4303 C   0  0  0  0  0
   17.5368    3.2346   -1.4302 C   0  0  0  0  0
   18.2584    2.6085   -2.5865 C   0  0  0  0  0
   19.0642    3.4631   -3.5194 O   0  0  0  0  0
   18.1743    1.1276   -2.8100 O   0  0  0  0  0
   17.2907    6.8228   -0.2579 C   0  0  0  0  0
   16.1261    7.7652   -0.3327 O   0  0  0  0  0
   18.6874    7.3622   -0.1670 O   0  0  0  0  0
  1  2  1  0  0  0
  2 12  2  0  0  0
  2  3  1  0  0  0
  3  4  1  0  0  0
  4  6  1  0  0  0
  4  5  2  0  0  0
  6 11  2  0  0  0
  6  7  1  0  0  0
  7  8  1  0  0  0
  8  9  1  0  0  0
  8 13  1  0  0  0
  9 10  1  0  0  0
 10 11  1  0  0  0
 11 12  1  0  0  0
 13 14  1  0  0  0
 14 17  1  0  0  0
 14 15  1  0  0  0
 15 16  2  0  0  0
 17 22  1  0  0  0
 17 18  2  0  0  0
 18 19  1  0  0  0
 19 20  2  0  0  0
 20 21  1  0  0  0
 20 23  1  0  0  0
 21 22  2  0  0  0
 23 25  1  0  0  0
 23 24  2  0  0  0
 25 26  1  0  0  0
 26 32  1  0  0  0
 26 27  1  0  0  0
 27 28  1  0  0  0
 28 29  1  0  0  0
 29 31  1  0  0  0
 29 30  2  0  0  0
 32 34  1  0  0  0
 32 33  2  0  0  0
M  END
> <SMILES>
NC1NC(=O)C=2NC(CNC=2(N=1))CN(C=O)C3=CC=C(C=C3)C(=O)NC(CCC(=O)O)C(=O)O

> <NAME>
10-FORMYL-THF

> <BioCyc_link>
http://biocyc.org/HUMAN/NEW-IMAGE?object=10-FORMYL-THF

> <BioCyc_name_HTML>
10-formyl-tetrahydrofolate

> <CAS>
2800-34-2

> <KEGG_ID>
C00234

> <toxTree.tree.cramer.CramerTreeResult>


> <FORMULA>


> <toxTree.tree.cramer.CramerRules>


$$$$
PORPHOBILINOGEN
 OpenBabel30120812303D

 16 16  0  0  0  0  0  0  0  0999 V2000
    1.0000    0.0000    0.0000 N   0  0  0  0  0
    2.5000    0.0000    0.0000 C   0  0  0  0  0
    3.0007    1.4140    0.0000 C   0  0  0  0  0
    2.2395    2.5351   -0.0195 N   0  0  0  0  0
    3.1079    3.5753    0.0000 C   0  0  0  0  0
    4.3135    3.0760    0.0230 C   0  0  0  0  0
    5.5806    3.8782    0.0501 C   0  0  0  0  0
    6.7597    2.9512    0.0715 C   0  0  0  0  0
    8.0269    3.7535    0.0987 C   0  0  0  0  0
    7.9658    5.2522    0.1009 O   0  0  0  0  0
    9.3551    3.0570    0.1236 O   0  0  0  0  0
    4.2498    1.7915    0.0188 C   0  0  0  0  0
    5.4316    0.8678    0.0332 C   0  0  0  0  0
    4.9555   -0.5546    0.0228 C   0  0  0  0  0
    3.4857   -0.8533    0.0011 O   0  0  0  0  0
    5.9491   -1.6782    0.0340 O   0  0  0  0  0
  1  2  1  0  0  0
  2  3  1  0  0  0
  3  4  1  0  0  0
  3 12  2  0  0  0
  4  5  1  0  0  0
  5  6  2  0  0  0
  6 12  1  0  0  0
  6  7  1  0  0  0
  7  8  1  0  0  0
  8  9  1  0  0  0
  9 11  1  0  0  0
  9 10  2  0  0  0
 12 13  1  0  0  0
 13 14  1  0  0  0
 14 16  1  0  0  0
 14 15  2  0  0  0
M  END
> <SMILES>
NCC=1NC=C(CCC(=O)O)C=1(CC(=O)O)

> <NAME>
PORPHOBILINOGEN

> <BioCyc_link>
http://biocyc.org/HUMAN/NEW-IMAGE?object=PORPHOBILINOGEN

> <BioCyc_name_HTML>
porphobilinogen

> <CAS>
487-90-1

> <KEGG_ID>
C00931

> <toxTree.tree.cramer.CramerTreeResult>


> <FORMULA>


> <toxTree.tree.cramer.CramerRules>


$$$$
PYRIDOXAMINE
 OpenBabel30120812303D

 12 12  0  0  0  0  0  0  0  0999 V2000
    1.0000    0.0000    0.0000 C   0  0  0  0  0
    2.5000    0.0000    0.0000 C   0  0  0  0  0
    3.1879   -1.1952   -0.0000 N   0  0  0  0  0
    4.5842   -1.1944    0.0121 C   0  0  0  0  0
    5.2744    0.0187    0.0181 C   0  0  0  0  0
    6.7743    0.0301    0.0312 C   0  0  0  0  0
    7.2643    1.4478    0.0354 O   0  0  0  0  0
    4.5744    1.2069    0.0121 C   0  0  0  0  0
    5.3151    2.5113    0.0185 C   0  0  0  0  0
    4.3328    3.6449    0.0100 N   0  0  0  0  0
    3.1903    1.1993    0.0000 C   0  0  0  0  0
    2.4359    2.4957   -0.0131 O   0  0  0  0  0
  1  2  1  0  0  0
  2 11  1  0  0  0
  2  3  2  0  0  0
  3  4  1  0  0  0
  4  5  2  0  0  0
  5  8  1  0  0  0
  5  6  1  0  0  0
  6  7  1  0  0  0
  8 11  2  0  0  0
  8  9  1  0  0  0
  9 10  1  0  0  0
 11 12  1  0  0  0
M  END
> <SMILES>
CC1=NC=C(CO)C(CN)=C1(O)

> <NAME>
PYRIDOXAMINE

> <BioCyc_link>
http://biocyc.org/HUMAN/NEW-IMAGE?object=PYRIDOXAMINE

> <BioCyc_name_HTML>
pyridoxamine

> <CAS>
85-87-0

> <KEGG_ID>
C00534

> <toxTree.tree.cramer.CramerTreeResult>


> <FORMULA>


> <toxTree.tree.cramer.CramerRules>


$$$$
TETRA-H-BIOPTERIN
 OpenBabel30120812303D

 17 18  0  0  0  0  0  0  0  0999 V2000
    1.0000    0.0000    0.0000 C   0  0  0  0  0
    2.5000    0.0000    0.0000 C   0  0  0  0  0
    3.0193   -0.7348   -1.2002 O   0  0  0  0  0
    3.0007    1.4140    0.0000 C   0  0  0  0  0
    2.4814    2.1488    1.2002 O   0  0  0  0  0
    4.5007    1.4140    0.0000 C   0  0  0  0  0
    5.0364    1.4248    1.4362 C   0  0  0  0  0
    6.5375    1.1451    1.3916 N   0  0  0  0  0
    7.2195    2.0653    0.4131 C   0  0  0  0  0
    8.5994    2.2071    0.5161 N   0  0  0  0  0
    9.2896    3.0266   -0.3480 C   0  0  0  0  0
   10.7774    3.1721   -0.2239 N   0  0  0  0  0
    8.5961    3.7218   -1.3409 N   0  0  0  0  0
    7.2133    3.5818   -1.4368 C   0  0  0  0  0
    6.4598    4.3342   -2.4933 O   0  0  0  0  0
    6.5291    2.7521   -0.5628 C   0  0  0  0  0
    5.0343    2.6489   -0.7223 N   0  0  0  0  0
  1  2  1  0  0  0
  2  4  1  0  0  0
  2  3  1  0  0  0
  4  6  1  0  0  0
  4  5  1  0  0  0
  6  7  1  0  0  0
  6 17  1  0  0  0
  7  8  1  0  0  0
  8  9  1  0  0  0
  9 10  1  0  0  0
  9 16  2  0  0  0
 10 11  2  0  0  0
 11 13  1  0  0  0
 11 12  1  0  0  0
 13 14  1  0  0  0
 14 16  1  0  0  0
 14 15  2  0  0  0
 16 17  1  0  0  0
M  END
> <SMILES>
CC(O)C(O)C1CNC=2N=C(N)NC(=O)C=2(N1)

> <NAME>
TETRA-H-BIOPTERIN

> <BioCyc_link>
http://biocyc.org/HUMAN/NEW-IMAGE?object=TETRA-H-BIOPTERIN

> <BioCyc_name_HTML>
tetrahydrobiopterin

> <CAS>
17528-72-2

> <KEGG_ID>
C00272

> <toxTree.tree.cramer.CramerTreeResult>


> <FORMULA>


> <toxTree.tree.cramer.CramerRules>


$$$$
THF
 OpenBabel30120812303D

 32 34  0  0  0  0  0  0  0  0999 V2000
    1.0000    0.0000    0.0000 N   0  0  0  0  0
    2.5000    0.0000    0.0000 C   0  0  0  0  0
    3.2026   -1.2058    0.0488 N   0  0  0  0  0
    4.5957   -1.1874    0.0565 C   0  0  0  0  0
    5.3574   -2.4781    0.1204 O   0  0  0  0  0
    5.2824    0.0151    0.0056 C   0  0  0  0  0
    6.7882   -0.0385    0.0189 N   0  0  0  0  0
    7.3774    1.2851   -0.4630 C   0  0  0  0  0
    8.8652    1.2970   -0.2722 C   0  0  0  0  0
    9.4211    2.6050   -0.7519 N   0  0  0  0  0
   10.8954    2.8688   -0.6693 C   0  0  0  0  0
   11.7816    1.8134   -0.6186 C   0  0  0  0  0
   13.1531    2.0600   -0.5295 C   0  0  0  0  0
   13.6179    3.3758   -0.4984 C   0  0  0  0  0
   12.7215    4.4221   -0.5558 C   0  0  0  0  0
   11.3631    4.1709   -0.6441 C   0  0  0  0  0
   15.0893    3.6511   -0.4028 C   0  0  0  0  0
   16.0630    2.5117   -0.3405 O   0  0  0  0  0
   15.5871    5.0657   -0.3696 N   0  0  0  0  0
   17.0585    5.3410   -0.2740 C   0  0  0  0  0
   17.7802    4.7148   -1.4303 C   0  0  0  0  0
   17.5368    3.2346   -1.4302 C   0  0  0  0  0
   18.2584    2.6085   -2.5865 C   0  0  0  0  0
   19.0642    3.4631   -3.5194 O   0  0  0  0  0
   18.1743    1.1276   -2.8100 O   0  0  0  0  0
   17.2907    6.8228   -0.2579 C   0  0  0  0  0
   16.1261    7.7652   -0.3327 O   0  0  0  0  0
   18.6874    7.3622   -0.1670 O   0  0  0  0  0
    6.7263    2.4223    0.3323 C   0  0  0  0  0
    5.2682    2.5428   -0.1071 N   0  0  0  0  0
    4.5835    1.2024   -0.0463 C   0  0  0  0  0
    3.1926    1.1886   -0.0481 N   0  0  0  0  0
  1  2  1  0  0  0
  2 32  2  0  0  0
  2  3  1  0  0  0
  3  4  1  0  0  0
  4  6  1  0  0  0
  4  5  2  0  0  0
  6 31  2  0  0  0
  6  7  1  0  0  0
  7  8  1  0  0  0
  8 29  1  0  0  0
  8  9  1  0  0  0
  9 10  1  0  0  0
 10 11  1  0  0  0
 11 16  1  0  0  0
 11 12  2  0  0  0
 12 13  1  0  0  0
 13 14  2  0  0  0
 14 15  1  0  0  0
 14 17  1  0  0  0
 15 16  2  0  0  0
 17 19  1  0  0  0
 17 18  2  0  0  0
 19 20  1  0  0  0
 20 26  1  0  0  0
 20 21  1  0  0  0
 21 22  1  0  0  0
 22 23  1  0  0  0
 23 25  1  0  0  0
 23 24  2  0  0  0
 26 28  1  0  0  0
 26 27  2  0  0  0
 29 30  1  0  0  0
 30 31  1  0  0  0
 31 32  1  0  0  0
M  END
> <SMILES>
NC2NC(=O)C=3NC(CNC1=CC=C(C=C1)C(=O)NC(CCC(=O)O)C(=O)O)CNC=3(N=2)

> <NAME>
THF

> <BioCyc_link>
http://biocyc.org/HUMAN/NEW-IMAGE?object=THF

> <BioCyc_name_HTML>
tetrahydrofolate

> <CAS>
29347-89-5

> <KEGG_ID>
C00101

> <toxTree.tree.cramer.CramerTreeResult>


> <FORMULA>


> <toxTree.tree.cramer.CramerRules>


$$$$
TRYPTAMINE
 OpenBabel30120812303D

 12 13  0  0  0  0  0  0  0  0999 V2000
    1.0000    0.0000    0.0000 N   0  0  0  0  0
    2.5000    0.0000    0.0000 C   0  0  0  0  0
    3.0007    1.4140    0.0000 C   0  0  0  0  0
    4.5007    1.4140    0.0000 C   0  0  0  0  0
    5.2897    1.4097   -1.0863 C   0  0  0  0  0
    6.6350    1.4112   -0.6963 N   0  0  0  0  0
    6.6962    1.4168    0.6196 C   0  0  0  0  0
    7.7764    1.4206    1.6062 C   0  0  0  0  0
    7.4159    1.4195    2.9419 C   0  0  0  0  0
    6.0743    1.4276    3.3080 C   0  0  0  0  0
    5.0938    1.4242    2.4435 C   0  0  0  0  0
    5.3123    1.4184    1.1174 C   0  0  0  0  0
  1  2  1  0  0  0
  2  3  1  0  0  0
  3  4  1  0  0  0
  4 12  1  0  0  0
  4  5  2  0  0  0
  5  6  1  0  0  0
  6  7  1  0  0  0
  7 12  1  0  0  0
  7  8  2  0  0  0
  8  9  1  0  0  0
  9 10  2  0  0  0
 10 11  1  0  0  0
 11 12  2  0  0  0
M  END
> <SMILES>
NCCC1=CNC2=CC=CC=C12

> <NAME>
TRYPTAMINE

> <BioCyc_link>
http://biocyc.org/HUMAN/NEW-IMAGE?object=TRYPTAMINE

> <BioCyc_name_HTML>
tryptamine

> <CAS>
61-54-1

> <KEGG_ID>
C00398

> <toxTree.tree.cramer.CramerTreeResult>


> <FORMULA>


> <toxTree.tree.cramer.CramerRules>


$$$$
URATE
 OpenBabel30120812303D

 12 13  0  0  0  0  0  0  0  0999 V2000
    1.0000    0.0000    0.0000 O   0  0  0  0  0
    2.5000    0.0000    0.0000 C   0  0  0  0  0
    3.1790    1.1799    0.0005 N   0  0  0  0  0
    4.4693    1.1771   -0.0015 C   0  0  0  0  0
    5.2065    2.4835   -0.0032 O   0  0  0  0  0
    5.1474    0.0598   -0.0019 C   0  0  0  0  0
    6.8831   -0.3229   -0.0042 N   0  0  0  0  0
    6.7479   -2.0534   -0.0001 C   0  0  0  0  0
    7.8411   -3.0805    0.0062 O   0  0  0  0  0
    5.3987   -2.2440   -0.0041 N   0  0  0  0  0
    4.5565   -1.1790   -0.0025 C   0  0  0  0  0
    3.1870   -1.1939   -0.0005 N   0  0  0  0  0
  1  2  2  0  0  0
  2  3  1  0  0  0
  2 12  1  0  0  0
  3  4  1  0  0  0
  4  6  1  0  0  0
  4  5  2  0  0  0
  6 11  2  0  0  0
  6  7  1  0  0  0
  7  8  1  0  0  0
  8 10  1  0  0  0
  8  9  2  0  0  0
 10 11  1  0  0  0
 11 12  1  0  0  0
M  END
> <SMILES>
O=C1NC(=O)C=2NC(=O)NC=2(N1)

> <NAME>
URATE

> <BioCyc_link>
http://biocyc.org/HUMAN/NEW-IMAGE?object=URATE

> <BioCyc_name_HTML>
urate

> <CAS>
69-93-2

> <KEGG_ID>
C00366

> <toxTree.tree.cramer.CramerTreeResult>


> <FORMULA>


> <toxTree.tree.cramer.CramerRules>


$$$$
UROPORPHYRINOGEN-III
 OpenBabel30120812303D

 60 63  0  0  0  0  0  0  0  0999 V2000
    1.0000    0.0000    0.0000 O   0  0  0  0  0
    2.5000    0.0000    0.0000 C   0  0  0  0  0
    3.2500   -1.2990    0.0000 O   0  0  0  0  0
    3.2500    1.2990    0.0000 C   0  0  0  0  0
    4.7249    1.0257    0.0000 C   0  0  0  0  0
    5.4749    2.3247    0.0000 C   0  0  0  0  0
    6.7746    2.4424    0.0053 C   0  0  0  0  0
    7.7683    1.3187    0.0121 C   0  0  0  0  0
    9.1592    1.8804    0.0167 C   0  0  0  0  0
    9.4946    3.1934    0.0151 N   0  0  0  0  0
   10.8492    3.2319    0.0319 C   0  0  0  0  0
   11.7028    4.4653    0.0434 C   0  0  0  0  0
   10.8252    5.6817    0.0335 C   0  0  0  0  0
    9.4700    5.6938    0.0278 N   0  0  0  0  0
    9.1091    7.0000    0.0307 C   0  0  0  0  0
    7.7075    7.5344    0.0328 C   0  0  0  0  0
    6.7359    6.3916    0.0313 C   0  0  0  0  0
    7.0479    5.0728    0.0238 N   0  0  0  0  0
    5.8658    4.4102    0.0366 C   0  0  0  0  0
    5.6528    5.8911    0.0122 C   0  0  0  0  0
    5.8659    4.4063    0.0036 C   0  0  0  0  0
    7.0609    3.7670    0.0034 N   0  0  0  0  0
    4.9349    3.4919   -0.0052 C   0  0  0  0  0
    3.4593    3.7612   -0.0192 C   0  0  0  0  0
    3.2206    5.2421   -0.0215 C   0  0  0  0  0
    4.3837    6.1892   -0.0106 O   0  0  0  0  0
    1.8189    5.7758   -0.0349 O   0  0  0  0  0
    4.9171    5.3064    0.0444 C   0  0  0  0  0
    3.4470    5.0083    0.0597 C   0  0  0  0  0
    2.6754    6.2946    0.0651 C   0  0  0  0  0
    1.2054    5.9965    0.0803 C   0  0  0  0  0
    0.7285    4.5743    0.0876 O   0  0  0  0  0
    0.2122    7.1206    0.0882 O   0  0  0  0  0
    5.4341    6.4838    0.0371 C   0  0  0  0  0
    4.6589    7.7680    0.0355 C   0  0  0  0  0
    5.6106    8.9274    0.0263 C   0  0  0  0  0
    7.0905    8.6829    0.0202 O   0  0  0  0  0
    5.0823   10.3313    0.0230 O   0  0  0  0  0
   10.2059    7.7072    0.0312 C   0  0  0  0  0
   10.2677    9.2059    0.0342 C   0  0  0  0  0
   11.7010    9.6480    0.0339 C   0  0  0  0  0
   11.7628   11.1467    0.0370 C   0  0  0  0  0
   10.4957   11.9496    0.0398 O   0  0  0  0  0
   13.0916   11.8426    0.0373 O   0  0  0  0  0
   11.2257    6.9238    0.0287 C   0  0  0  0  0
   12.6579    7.3698    0.0213 C   0  0  0  0  0
   13.5564    6.1686    0.0203 C   0  0  0  0  0
   12.9654    4.7900    0.0263 O   0  0  0  0  0
   15.0458    6.3462    0.0134 O   0  0  0  0  0
   11.2739    1.9979    0.0362 C   0  0  0  0  0
   12.7144    1.5800    0.0539 C   0  0  0  0  0
   12.8013    0.0825    0.0538 C   0  0  0  0  0
   11.5480   -0.7415    0.0375 O   0  0  0  0  0
   14.1415   -0.5910    0.0700 O   0  0  0  0  0
   10.2696    1.1947    0.0230 C   0  0  0  0  0
   10.3607   -0.3025    0.0159 C   0  0  0  0  0
    8.9798   -0.8880    0.0005 C   0  0  0  0  0
    9.0709   -2.3853   -0.0066 C   0  0  0  0  0
   10.4130   -3.0551    0.0018 O   0  0  0  0  0
    7.8198   -3.2127   -0.0222 O   0  0  0  0  0
  1  2  2  0  0  0
  2  4  1  0  0  0
  2  3  1  0  0  0
  4  5  1  0  0  0
  5  6  1  0  0  0
  6 23  1  0  0  0
  6  7  2  0  0  0
  7 22  1  0  0  0
  7  8  1  0  0  0
  8  9  1  0  0  0
  9 10  1  0  0  0
  9 55  2  0  0  0
 10 11  1  0  0  0
 11 50  2  0  0  0
 11 12  1  0  0  0
 12 13  1  0  0  0
 13 14  1  0  0  0
 13 45  2  0  0  0
 14 15  1  0  0  0
 15 39  2  0  0  0
 15 16  1  0  0  0
 16 17  1  0  0  0
 17 18  1  0  0  0
 17 34  2  0  0  0
 18 19  1  0  0  0
 19 28  2  0  0  0
 20 21  1  0  0  0
 21 22  1  0  0  0
 21 23  2  0  0  0
 23 24  1  0  0  0
 24 25  1  0  0  0
 25 27  1  0  0  0
 25 26  2  0  0  0
 28 34  1  0  0  0
 28 29  1  0  0  0
 29 30  1  0  0  0
 30 31  1  0  0  0
 31 33  1  0  0  0
 31 32  2  0  0  0
 34 35  1  0  0  0
 35 36  1  0  0  0
 36 38  1  0  0  0
 36 37  2  0  0  0
 39 45  1  0  0  0
 39 40  1  0  0  0
 40 41  1  0  0  0
 41 42  1  0  0  0
 42 44  1  0  0  0
 42 43  2  0  0  0
 45 46  1  0  0  0
 46 47  1  0  0  0
 47 49  1  0  0  0
 47 48  2  0  0  0
 50 55  1  0  0  0
 50 51  1  0  0  0
 51 52  1  0  0  0
 52 54  1  0  0  0
 52 53  2  0  0  0
 55 56  1  0  0  0
 56 57  1  0  0  0
 57 58  1  0  0  0
 58 60  1  0  0  0
 58 59  2  0  0  0
M  END
> <SMILES>
O=C(O)CCC2=C1CC=5NC(CC=4NC(CC=3NC(CC(N1)=C2(CC(=O)O))=C(CCC(=O)O)C=3(CC(=O)O))=C(CCC(=O)O)C=4(CC(=O)O))=C(CC(=O)O)C=5(CCC(=O)O)

> <NAME>
UROPORPHYRINOGEN-III

> <BioCyc_link>
http://biocyc.org/HUMAN/NEW-IMAGE?object=UROPORPHYRINOGEN-III

> <BioCyc_name_HTML>
uroporphyrinogen-III

> <CAS>
1976-85-8

> <KEGG_ID>
C01051

> <toxTree.tree.cramer.CramerTreeResult>


> <FORMULA>


> <toxTree.tree.cramer.CramerRules>


$$$$
XANTHINE
 OpenBabel30120812303D

 11 12  0  0  0  0  0  0  0  0999 V2000
    1.0000    0.0000    0.0000 O   0  0  0  0  0
    2.5000    0.0000    0.0000 C   0  0  0  0  0
    3.1915   -1.2066    0.0000 N   0  0  0  0  0
    4.4961   -1.2868    0.0124 C   0  0  0  0  0
    5.1409   -2.6411    0.0180 O   0  0  0  0  0
    5.2778   -0.1934    0.0202 C   0  0  0  0  0
    6.6414    0.0247    0.0330 N   0  0  0  0  0
    6.8498    1.3510    0.0348 C   0  0  0  0  0
    5.6219    2.0248    0.0232 N   0  0  0  0  0
    4.6494    1.1362    0.0137 C   0  0  0  0  0
    3.1879    1.2004   -0.0000 N   0  0  0  0  0
  1  2  2  0  0  0
  2  3  1  0  0  0
  2 11  1  0  0  0
  3  4  1  0  0  0
  4  6  1  0  0  0
  4  5  2  0  0  0
  6  7  1  0  0  0
  6 10  2  0  0  0
  7  8  1  0  0  0
  8  9  2  0  0  0
  9 10  1  0  0  0
 10 11  1  0  0  0
M  END
> <SMILES>
O=C1NC(=O)C=2NC=NC=2(N1)

> <NAME>
XANTHINE

> <BioCyc_link>
http://biocyc.org/HUMAN/NEW-IMAGE?object=XANTHINE

> <BioCyc_name_HTML>
xanthine

> <CAS>
69-89-6

> <KEGG_ID>
C00385

> <toxTree.tree.cramer.CramerTreeResult>


> <FORMULA>


> <toxTree.tree.cramer.CramerRules>


$$$$
PROTOPORPHYRINOGEN
 OpenBabel30120812303D

 42 45  0  0  0  0  0  0  0  0999 V2000
    1.0000    0.0000    0.0000 C   0  0  0  0  0
    2.5000    0.0000    0.0000 C   0  0  0  0  0
    3.2500    1.2990    0.0000 C   0  0  0  0  0
    4.5307    1.4150   -0.0107 C   0  0  0  0  0
    5.5017    0.2717   -0.0181 C   0  0  0  0  0
    4.8571    2.6785   -0.0142 C   0  0  0  0  0
    6.2495    3.2364   -0.0263 C   0  0  0  0  0
    6.1884    4.7351   -0.0266 C   0  0  0  0  0
    5.0764    5.4926    0.1352 N   0  0  0  0  0
    5.4917    6.7813    0.0759 C   0  0  0  0  0
    4.6274    8.0001    0.2084 C   0  0  0  0  0
    3.2025    7.5828    0.4213 C   0  0  0  0  0
    2.7439    6.3096    0.4935 N   0  0  0  0  0
    1.4087    6.4060    0.7045 C   0  0  0  0  0
    0.4494    5.2636    0.8622 C   0  0  0  0  0
    1.1935    3.9660    0.7508 C   0  0  0  0  0
    2.5270    3.8130    0.5633 N   0  0  0  0  0
    2.7483    2.4763    0.5348 C   0  0  0  0  0
    1.2324    2.7822    0.0361 C   0  0  0  0  0
    2.7021    2.4835    0.0109 C   0  0  0  0  0
    3.7060    3.3937   -0.0049 N   0  0  0  0  0
    1.5945    1.8870    0.6920 C   0  0  0  0  0
    1.3794    0.4029    0.7231 C   0  0  0  0  0
    0.6700    2.7723    0.8162 C   0  0  0  0  0
   -0.7883    2.4777    1.0072 C   0  0  0  0  0
   -1.7700    3.6041    1.1397 C   0  0  0  0  0
    1.1114    7.6761    0.7453 C   0  0  0  0  0
   -0.2637    8.2352    0.9606 C   0  0  0  0  0
    2.1768    8.3754    0.5728 C   0  0  0  0  0
    2.2321    9.8742    0.5494 C   0  0  0  0  0
    3.6468   10.3196    0.3252 C   0  0  0  0  0
    3.7022   11.8184    0.3017 C   0  0  0  0  0
    2.4471   12.6183    0.4889 O   0  0  0  0  0
    5.0126   12.5173    0.0912 O   0  0  0  0  0
    6.7822    6.7662   -0.1178 C   0  0  0  0  0
    7.6511    7.9823   -0.2451 C   0  0  0  0  0
    9.0744    7.5604   -0.4597 C   0  0  0  0  0
    9.9434    8.7764   -0.5870 C   0  0  0  0  0
    9.3366   10.1450   -0.4926 O   0  0  0  0  0
   11.4190    8.6239   -0.8088 O   0  0  0  0  0
    7.1956    5.5502   -0.1829 C   0  0  0  0  0
    8.6191    5.1323   -0.4046 C   0  0  0  0  0
  1  2  2  0  0  0
  2  3  1  0  0  0
  3 20  2  0  0  0
  3  4  1  0  0  0
  4  6  2  0  0  0
  4  5  1  0  0  0
  6 21  1  0  0  0
  6  7  1  0  0  0
  7  8  1  0  0  0
  8  9  1  0  0  0
  8 41  2  0  0  0
  9 10  1  0  0  0
 10 35  2  0  0  0
 10 11  1  0  0  0
 11 12  1  0  0  0
 12 13  1  0  0  0
 12 29  2  0  0  0
 13 14  1  0  0  0
 14 27  2  0  0  0
 14 15  1  0  0  0
 15 16  1  0  0  0
 16 17  1  0  0  0
 16 24  2  0  0  0
 17 18  1  0  0  0
 18 22  2  0  0  0
 19 20  1  0  0  0
 20 21  1  0  0  0
 22 24  1  0  0  0
 22 23  1  0  0  0
 24 25  1  0  0  0
 25 26  2  0  0  0
 27 29  1  0  0  0
 27 28  1  0  0  0
 29 30  1  0  0  0
 30 31  1  0  0  0
 31 32  1  0  0  0
 32 34  1  0  0  0
 32 33  2  0  0  0
 35 41  1  0  0  0
 35 36  1  0  0  0
 36 37  1  0  0  0
 37 38  1  0  0  0
 38 40  1  0  0  0
 38 39  2  0  0  0
 41 42  1  0  0  0
M  END
> <SMILES>
C=CC=2C(C)=C1CC=5NC(CC=4NC(CC=3NC(CC=2(N1))=C(C)C=3(C=C))=C(C)C=4(CCC(=O)O))=C(CCC(=O)O)C=5(C)

> <NAME>
PROTOPORPHYRINOGEN

> <BioCyc_link>
http://biocyc.org/HUMAN/NEW-IMAGE?object=PROTOPORPHYRINOGEN

> <BioCyc_name_HTML>
protoporphyrinogen

> <CAS>
7412-77-3

> <KEGG_ID>
C01079

> <toxTree.tree.cramer.CramerTreeResult>


> <FORMULA>


> <toxTree.tree.cramer.CramerRules>


$$$$
DEOXYCYTIDINE
 OpenBabel30120812303D

 19 20  0  0  0  0  0  0  0  0999 V2000
    1.0000    0.0000    0.0000 H   0  0  0  0  0
    2.5000    0.0000    0.0000 C   0  0  0  0  0
    2.9034    0.1217   -1.4396 O   0  0  0  0  0
    3.0599    1.1537    0.8679 C   0  0  0  0  0
    4.4904    0.6582    1.2094 C   0  0  0  0  0
    5.0630    1.3496    2.4111 H   0  0  0  0  0
    4.3235   -0.8601    1.4286 O   0  0  0  0  0
    3.0578   -1.2782    0.6595 C   0  0  0  0  0
    2.0467   -1.8906    1.5829 H   0  0  0  0  0
    3.3824   -2.3132   -0.3765 C   0  0  0  0  0
    2.1309   -2.6995   -1.1076 O   0  0  0  0  0
    5.4454    0.9430    0.0883 N   0  0  0  0  0
    6.0963   -0.0929   -0.5481 C   0  0  0  0  0
    6.9730    0.1781   -1.6005 C   0  0  0  0  0
    7.1798    1.4979   -2.0051 C   0  0  0  0  0
    8.1197    1.7993   -3.1346 N   0  0  0  0  0
    6.5181    2.5240   -1.3642 N   0  0  0  0  0
    5.6502    2.2487   -0.3216 C   0  0  0  0  0
    4.9291    3.3697    0.3665 O   0  0  0  0  0
  1  2  1  0  0  0
  2  8  1  0  0  0
  2  4  1  0  0  0
  2  3  1  0  0  0
  4  5  1  0  0  0
  5  7  1  0  0  0
  5 12  1  0  0  0
  5  6  1  0  0  0
  7  8  1  0  0  0
  8 10  1  0  0  0
  8  9  1  0  0  0
 10 11  1  0  0  0
 12 18  1  0  0  0
 12 13  1  0  0  0
 13 14  2  0  0  0
 14 15  1  0  0  0
 15 17  2  0  0  0
 15 16  1  0  0  0
 17 18  1  0  0  0
 18 19  2  0  0  0
M  END
> <SMILES>
[H]C1(O)(CC([H])(OC1([H])(CO))N2C=CC(N)=NC2(=O))

> <NAME>
DEOXYCYTIDINE

> <BioCyc_link>
http://biocyc.org/HUMAN/NEW-IMAGE?object=DEOXYCYTIDINE

> <BioCyc_name_HTML>
deoxycytidine

> <CAS>
951-77-9

> <KEGG_ID>
C00881

> <toxTree.tree.cramer.CramerTreeResult>


> <FORMULA>


> <toxTree.tree.cramer.CramerRules>


$$$$
DEOXYURIDINE
 OpenBabel30120812303D

 19 20  0  0  0  0  0  0  0  0999 V2000
    1.0000    0.0000    0.0000 H   0  0  0  0  0
    2.5000    0.0000    0.0000 C   0  0  0  0  0
    2.9034    0.1217   -1.4396 O   0  0  0  0  0
    3.0599    1.1537    0.8679 C   0  0  0  0  0
    4.4904    0.6582    1.2094 C   0  0  0  0  0
    5.0630    1.3496    2.4111 H   0  0  0  0  0
    4.3235   -0.8601    1.4286 O   0  0  0  0  0
    3.0578   -1.2782    0.6595 C   0  0  0  0  0
    2.0467   -1.8906    1.5829 H   0  0  0  0  0
    3.3824   -2.3132   -0.3765 C   0  0  0  0  0
    2.1309   -2.6995   -1.1076 O   0  0  0  0  0
    5.4454    0.9430    0.0883 N   0  0  0  0  0
    6.0963   -0.0929   -0.5481 C   0  0  0  0  0
    6.9730    0.1781   -1.6005 C   0  0  0  0  0
    7.1798    1.4979   -2.0051 C   0  0  0  0  0
    8.1197    1.7993   -3.1346 O   0  0  0  0  0
    6.5181    2.5240   -1.3642 N   0  0  0  0  0
    5.6502    2.2487   -0.3216 C   0  0  0  0  0
    4.9291    3.3697    0.3665 O   0  0  0  0  0
  1  2  1  0  0  0
  2  8  1  0  0  0
  2  4  1  0  0  0
  2  3  1  0  0  0
  4  5  1  0  0  0
  5  7  1  0  0  0
  5 12  1  0  0  0
  5  6  1  0  0  0
  7  8  1  0  0  0
  8 10  1  0  0  0
  8  9  1  0  0  0
 10 11  1  0  0  0
 12 18  1  0  0  0
 12 13  1  0  0  0
 13 14  2  0  0  0
 14 15  1  0  0  0
 15 17  1  0  0  0
 15 16  2  0  0  0
 17 18  1  0  0  0
 18 19  2  0  0  0
M  END
> <SMILES>
[H]C1(O)(CC([H])(OC1([H])(CO))N2C=CC(=O)NC2(=O))

> <NAME>
DEOXYURIDINE

> <BioCyc_link>
http://biocyc.org/HUMAN/NEW-IMAGE?object=DEOXYURIDINE

> <BioCyc_name_HTML>
deoxyuridine

> <CAS>
951-78-0

> <KEGG_ID>
C00526

> <toxTree.tree.cramer.CramerTreeResult>


> <FORMULA>


> <toxTree.tree.cramer.CramerRules>


$$$$
DEOXYADENOSINE
 OpenBabel30120812303D

 21 23  0  0  0  0  0  0  0  0999 V2000
    1.0000    0.0000    0.0000 H   0  0  0  0  0
    2.5000    0.0000    0.0000 C   0  0  0  0  0
    2.9034    0.1217   -1.4396 O   0  0  0  0  0
    3.0599    1.1537    0.8679 C   0  0  0  0  0
    4.4904    0.6582    1.2094 C   0  0  0  0  0
    5.0630    1.3496    2.4111 H   0  0  0  0  0
    4.3235   -0.8601    1.4286 O   0  0  0  0  0
    3.0578   -1.2782    0.6595 C   0  0  0  0  0
    2.0467   -1.8906    1.5829 H   0  0  0  0  0
    3.3824   -2.3132   -0.3765 C   0  0  0  0  0
    2.1309   -2.6995   -1.1076 O   0  0  0  0  0
    5.4454    0.9430    0.0883 N   0  0  0  0  0
    6.1375    0.0329   -0.6155 C   0  0  0  0  0
    6.9010    0.6737   -1.5995 N   0  0  0  0  0
    6.6943    1.9723   -1.5194 C   0  0  0  0  0
    7.1824    3.1454   -2.2447 C   0  0  0  0  0
    8.1503    3.0122   -3.3829 N   0  0  0  0  0
    6.7152    4.3825   -1.8381 N   0  0  0  0  0
    5.8084    4.4812   -0.7884 C   0  0  0  0  0
    5.3597    3.4468   -0.1271 N   0  0  0  0  0
    5.7422    2.1921   -0.4204 C   0  0  0  0  0
  1  2  1  0  0  0
  2  8  1  0  0  0
  2  4  1  0  0  0
  2  3  1  0  0  0
  4  5  1  0  0  0
  5  7  1  0  0  0
  5 12  1  0  0  0
  5  6  1  0  0  0
  7  8  1  0  0  0
  8 10  1  0  0  0
  8  9  1  0  0  0
 10 11  1  0  0  0
 12 21  1  0  0  0
 12 13  1  0  0  0
 13 14  2  0  0  0
 14 15  1  0  0  0
 15 21  2  0  0  0
 15 16  1  0  0  0
 16 18  2  0  0  0
 16 17  1  0  0  0
 18 19  1  0  0  0
 19 20  2  0  0  0
 20 21  1  0  0  0
M  END
> <SMILES>
[H]C1(O)(CC([H])(OC1([H])(CO))N3C=NC=2C(N)=NC=NC=23)

> <NAME>
DEOXYADENOSINE

> <BioCyc_link>
http://biocyc.org/HUMAN/NEW-IMAGE?object=DEOXYADENOSINE

> <BioCyc_name_HTML>
deoxyadenosine

> <CAS>
958-09-8

> <KEGG_ID>
C00559

> <toxTree.tree.cramer.CramerTreeResult>


> <FORMULA>


> <toxTree.tree.cramer.CramerRules>


$$$$
7-8-DIHYDROPTEROATE
 OpenBabel30120812303D

 23 25  0  0  0  0  0  0  0  0999 V2000
    1.0000    0.0000    0.0000 N   0  0  0  0  0
    2.5000    0.0000    0.0000 C   0  0  0  0  0
    3.1869   -1.2073    0.0025 N   0  0  0  0  0
    4.5531   -1.2367   -0.0085 C   0  0  0  0  0
    5.2786   -2.5496   -0.0187 O   0  0  0  0  0
    5.2705   -0.0387   -0.0101 C   0  0  0  0  0
    6.7334   -0.0154   -0.0144 N   0  0  0  0  0
    7.3654    1.1201   -0.0157 C   0  0  0  0  0
    8.8653    1.1083   -0.0200 C   0  0  0  0  0
    9.3772    2.5183   -0.0208 N   0  0  0  0  0
   10.8542    2.7800   -0.0249 C   0  0  0  0  0
   11.7401    1.7232   -0.0258 C   0  0  0  0  0
   13.1148    1.9675   -0.0175 C   0  0  0  0  0
   13.5828    3.2825   -0.0143 C   0  0  0  0  0
   12.6862    4.3303   -0.0194 C   0  0  0  0  0
   11.3246    4.0813   -0.0277 C   0  0  0  0  0
   15.0577    3.5554   -0.0053 C   0  0  0  0  0
   16.0315    2.4145    0.0002 O   0  0  0  0  0
   15.5589    4.9692   -0.0019 O   0  0  0  0  0
    6.7062    2.3497   -0.0133 C   0  0  0  0  0
    5.3590    2.4333   -0.0094 N   0  0  0  0  0
    4.5755    1.1915   -0.0076 C   0  0  0  0  0
    3.1812    1.1973   -0.0025 N   0  0  0  0  0
  1  2  1  0  0  0
  2  3  1  0  0  0
  2 23  2  0  0  0
  3  4  1  0  0  0
  4  6  1  0  0  0
  4  5  2  0  0  0
  6 22  2  0  0  0
  6  7  1  0  0  0
  7  8  2  0  0  0
  8 20  1  0  0  0
  8  9  1  0  0  0
  9 10  1  0  0  0
 10 11  1  0  0  0
 11 16  1  0  0  0
 11 12  2  0  0  0
 12 13  1  0  0  0
 13 14  2  0  0  0
 14 15  1  0  0  0
 14 17  1  0  0  0
 15 16  2  0  0  0
 17 19  1  0  0  0
 17 18  2  0  0  0
 20 21  1  0  0  0
 21 22  1  0  0  0
 22 23  1  0  0  0
M  END
> <SMILES>
NC2NC(=O)C=3N=C(CNC1=CC=C(C=C1)C(=O)O)CNC=3(N=2)

> <NAME>
7-8-DIHYDROPTEROATE

> <BioCyc_link>
http://biocyc.org/HUMAN/NEW-IMAGE?object=7-8-DIHYDROPTEROATE

> <BioCyc_name_HTML>
7,8-dihydropteroate

> <CAS>


> <KEGG_ID>
C00921

> <toxTree.tree.cramer.CramerTreeResult>


> <FORMULA>


> <toxTree.tree.cramer.CramerRules>


$$$$
BIOTIN
 OpenBabel30120812303D

 19 20  0  0  0  0  0  0  0  0999 V2000
    1.0000    0.0000    0.0000 H   0  0  0  0  0
    2.5000    0.0000    0.0000 C   0  0  0  0  0
    3.0511    1.3542    0.3985 C   0  0  0  0  0
    4.2614    1.4914   -0.1666 S   0  0  0  0  0
    4.2934    0.7783   -1.4342 C   0  0  0  0  0
    4.0484    1.7111   -2.5831 H   0  0  0  0  0
    5.6394    0.1565   -1.6616 C   0  0  0  0  0
    6.6823    1.2323   -1.7330 C   0  0  0  0  0
    8.0283    0.6106   -1.9604 C   0  0  0  0  0
    9.0712    1.6864   -2.0318 C   0  0  0  0  0
   10.4172    1.0646   -2.2592 C   0  0  0  0  0
   10.5449   -0.4253   -2.3771 O   0  0  0  0  0
   11.6355    1.9328   -2.3687 O   0  0  0  0  0
    3.1980   -0.3023   -1.3559 C   0  0  0  0  0
    2.3176   -0.3044   -2.5704 H   0  0  0  0  0
    3.8467   -1.6563   -1.1575 N   0  0  0  0  0
    4.0902   -1.7891    0.1755 C   0  0  0  0  0
    5.2343   -2.5559    0.7696 O   0  0  0  0  0
    3.0763   -1.0771    0.9384 N   0  0  0  0  0
  1  2  1  0  0  0
  2  3  1  0  0  0
  2 19  1  0  0  0
  2 14  1  0  0  0
  3  4  1  0  0  0
  4  5  1  0  0  0
  5 14  1  0  0  0
  5  7  1  0  0  0
  5  6  1  0  0  0
  7  8  1  0  0  0
  8  9  1  0  0  0
  9 10  1  0  0  0
 10 11  1  0  0  0
 11 13  1  0  0  0
 11 12  2  0  0  0
 14 16  1  0  0  0
 14 15  1  0  0  0
 16 17  1  0  0  0
 17 19  1  0  0  0
 17 18  2  0  0  0
M  END
> <SMILES>
[H]C12(CSC([H])(CCCCC(=O)O)C2([H])(NC(=O)N1))

> <NAME>
BIOTIN

> <BioCyc_link>
http://biocyc.org/HUMAN/NEW-IMAGE?object=BIOTIN

> <BioCyc_name_HTML>
biotin

> <CAS>
58-85-5

> <KEGG_ID>
C00120

> <toxTree.tree.cramer.CramerTreeResult>


> <FORMULA>


> <toxTree.tree.cramer.CramerRules>


$$$$
DEOXYGUANOSINE
 OpenBabel30120812303D

 22 24  0  0  0  0  0  0  0  0999 V2000
    1.0000    0.0000    0.0000 H   0  0  0  0  0
    2.5000    0.0000    0.0000 C   0  0  0  0  0
    2.9034    0.1217   -1.4396 O   0  0  0  0  0
    3.0599    1.1537    0.8679 C   0  0  0  0  0
    4.4904    0.6582    1.2094 C   0  0  0  0  0
    5.0630    1.3496    2.4111 H   0  0  0  0  0
    4.3235   -0.8601    1.4286 O   0  0  0  0  0
    3.0578   -1.2782    0.6595 C   0  0  0  0  0
    2.0467   -1.8906    1.5829 H   0  0  0  0  0
    3.3824   -2.3132   -0.3765 C   0  0  0  0  0
    2.1309   -2.6995   -1.1076 O   0  0  0  0  0
    5.4454    0.9430    0.0883 N   0  0  0  0  0
    6.1375    0.0329   -0.6155 C   0  0  0  0  0
    6.9010    0.6737   -1.5995 N   0  0  0  0  0
    6.6943    1.9723   -1.5194 C   0  0  0  0  0
    7.1824    3.1454   -2.2447 C   0  0  0  0  0
    8.1503    3.0122   -3.3829 O   0  0  0  0  0
    6.7152    4.3825   -1.8381 N   0  0  0  0  0
    5.8084    4.4812   -0.7884 C   0  0  0  0  0
    5.3204    5.8440   -0.3949 N   0  0  0  0  0
    5.3597    3.4468   -0.1271 N   0  0  0  0  0
    5.7422    2.1921   -0.4204 C   0  0  0  0  0
  1  2  1  0  0  0
  2  8  1  0  0  0
  2  4  1  0  0  0
  2  3  1  0  0  0
  4  5  1  0  0  0
  5  7  1  0  0  0
  5 12  1  0  0  0
  5  6  1  0  0  0
  7  8  1  0  0  0
  8 10  1  0  0  0
  8  9  1  0  0  0
 10 11  1  0  0  0
 12 22  1  0  0  0
 12 13  1  0  0  0
 13 14  2  0  0  0
 14 15  1  0  0  0
 15 22  2  0  0  0
 15 16  1  0  0  0
 16 18  1  0  0  0
 16 17  2  0  0  0
 18 19  1  0  0  0
 19 21  2  0  0  0
 19 20  1  0  0  0
 21 22  1  0  0  0
M  END
> <SMILES>
[H]C1(O)(CC([H])(OC1([H])(CO))N3C=NC=2C(=O)NC(N)=NC=23)

> <NAME>
DEOXYGUANOSINE

> <BioCyc_link>
http://biocyc.org/HUMAN/NEW-IMAGE?object=DEOXYGUANOSINE

> <BioCyc_name_HTML>
deoxyguanosine

> <CAS>
961-07-9

> <KEGG_ID>
C00330

> <toxTree.tree.cramer.CramerTreeResult>


> <FORMULA>


> <toxTree.tree.cramer.CramerRules>


$$$$
COPROPORPHYRINOGEN_III
 OpenBabel30120812303D

 48 51  0  0  0  0  0  0  0  0999 V2000
    1.0000    0.0000    0.0000 C   0  0  0  0  0
    2.5000    0.0000    0.0000 C   0  0  0  0  0
    3.2517   -1.0668    0.0015 C   0  0  0  0  0
    2.7755   -2.4892    0.0034 C   0  0  0  0  0
    3.9574   -3.4129    0.0047 C   0  0  0  0  0
    5.2622   -3.0468    0.0118 N   0  0  0  0  0
    5.9728   -4.2007    0.0214 C   0  0  0  0  0
    7.4677   -4.3234    0.0380 C   0  0  0  0  0
    8.0823   -2.9551    0.0426 C   0  0  0  0  0
    7.4154   -1.7755    0.0222 N   0  0  0  0  0
    8.3658   -0.8098    0.0472 C   0  0  0  0  0
    8.1277    0.6712    0.0445 C   0  0  0  0  0
    6.6526    0.9412    0.0094 C   0  0  0  0  0
    5.6668    0.0116   -0.0126 N   0  0  0  0  0
    4.5020    0.7041   -0.0298 C   0  0  0  0  0
    5.6775    1.6291    0.0180 C   0  0  0  0  0
    4.4983    0.7021    0.0060 C   0  0  0  0  0
    4.5420   -0.6524    0.0011 N   0  0  0  0  0
    3.2408    1.0512   -0.0015 C   0  0  0  0  0
    2.7362    2.4638   -0.0105 C   0  0  0  0  0
    3.8994    3.4109   -0.0096 C   0  0  0  0  0
    3.3948    4.8235   -0.0186 C   0  0  0  0  0
    1.9192    5.0928   -0.0268 O   0  0  0  0  0
    4.3659    5.9668   -0.0195 O   0  0  0  0  0
    4.8037    1.9738   -0.0246 C   0  0  0  0  0
    3.8106    3.0979   -0.0388 C   0  0  0  0  0
    6.0818    2.1147   -0.0055 C   0  0  0  0  0
    6.8064    3.4281   -0.0010 C   0  0  0  0  0
    8.2861    3.1836    0.0232 C   0  0  0  0  0
    9.0106    4.4970    0.0277 C   0  0  0  0  0
    8.2356    5.7811    0.0090 O   0  0  0  0  0
   10.5102    4.5262    0.0508 O   0  0  0  0  0
    9.5264   -1.4060    0.0740 C   0  0  0  0  0
   10.8547   -0.7101    0.1077 C   0  0  0  0  0
    9.3580   -2.6809    0.0671 C   0  0  0  0  0
   10.4602   -3.6981    0.0845 C   0  0  0  0  0
    9.8695   -5.0768    0.0695 C   0  0  0  0  0
   10.9717   -6.0941    0.0869 C   0  0  0  0  0
   12.4036   -5.6480    0.1148 O   0  0  0  0  0
   10.6421   -7.5574    0.0765 O   0  0  0  0  0
    5.1165   -5.1856    0.0134 C   0  0  0  0  0
    5.4748   -6.6421    0.0198 C   0  0  0  0  0
    4.2214   -7.4661    0.0072 C   0  0  0  0  0
    4.5797   -8.9227    0.0136 C   0  0  0  0  0
    6.0202   -9.3407    0.0302 O   0  0  0  0  0
    3.4975   -9.9613    0.0032 O   0  0  0  0  0
    3.9188   -4.7174   -0.0006 C   0  0  0  0  0
    2.6678   -5.5448   -0.0202 C   0  0  0  0  0
  1  2  1  0  0  0
  2 19  1  0  0  0
  2  3  2  0  0  0
  3 18  1  0  0  0
  3  4  1  0  0  0
  4  5  1  0  0  0
  5  6  1  0  0  0
  5 47  2  0  0  0
  6  7  1  0  0  0
  7 41  2  0  0  0
  7  8  1  0  0  0
  8  9  1  0  0  0
  9 10  1  0  0  0
  9 35  2  0  0  0
 10 11  1  0  0  0
 11 33  2  0  0  0
 11 12  1  0  0  0
 12 13  1  0  0  0
 13 14  1  0  0  0
 13 27  2  0  0  0
 14 15  1  0  0  0
 15 25  2  0  0  0
 16 17  1  0  0  0
 17 18  1  0  0  0
 17 19  2  0  0  0
 19 20  1  0  0  0
 20 21  1  0  0  0
 21 22  1  0  0  0
 22 24  1  0  0  0
 22 23  2  0  0  0
 25 27  1  0  0  0
 25 26  1  0  0  0
 27 28  1  0  0  0
 28 29  1  0  0  0
 29 30  1  0  0  0
 30 32  1  0  0  0
 30 31  2  0  0  0
 33 35  1  0  0  0
 33 34  1  0  0  0
 35 36  1  0  0  0
 36 37  1  0  0  0
 37 38  1  0  0  0
 38 40  1  0  0  0
 38 39  2  0  0  0
 41 47  1  0  0  0
 41 42  1  0  0  0
 42 43  1  0  0  0
 43 44  1  0  0  0
 44 46  1  0  0  0
 44 45  2  0  0  0
 47 48  1  0  0  0
M  END
> <SMILES>
CC2=C1CC=5NC(CC=4NC(CC=3NC(CC(N1)=C2(CCC(=O)O))=C(C)C=3(CCC(=O)O))=C(C)C=4(CCC(=O)O))=C(CCC(=O)O)C=5(C)

> <NAME>
COPROPORPHYRINOGEN_III

> <BioCyc_link>
http://biocyc.org/HUMAN/NEW-IMAGE?object=COPROPORPHYRINOGEN_III

> <BioCyc_name_HTML>
coproporphyrinogen

> <CAS>
2624-63-7

> <KEGG_ID>
C03263

> <toxTree.tree.cramer.CramerTreeResult>


> <FORMULA>


> <toxTree.tree.cramer.CramerRules>


$$$$
CPD-3604
 OpenBabel30120812303D

 19 19  0  0  0  0  0  0  0  0999 V2000
    1.0000    0.0000    0.0000 H   0  0  0  0  0
    2.5000    0.0000    0.0000 C   0  0  0  0  0
    2.9688    0.1628    1.4155 C   0  0  0  0  0
    4.4684    0.1666    1.4490 O   0  0  0  0  0
    3.0315   -1.3200   -0.5633 O   0  0  0  0  0
    2.6379   -1.4463   -1.9315 C   0  0  0  0  0
    3.0711   -2.7838   -2.4545 O   0  0  0  0  0
    3.1450   -0.4160   -2.7815 C   0  0  0  0  0
    2.6818   -0.6625   -4.1867 H   0  0  0  0  0
    4.6449   -0.4238   -2.7694 N   0  0  0  0  0
    5.4067    0.5734   -3.5911 C   0  0  0  0  0
    4.6686    1.5784   -4.4249 C   0  0  0  0  0
    6.9067    0.5656   -3.5791 O   0  0  0  0  0
    2.6181    0.9406   -2.3079 C   0  0  0  0  0
    1.1216    0.9571   -2.4091 H   0  0  0  0  0
    3.1588    2.0403   -3.1730 O   0  0  0  0  0
    3.0321    1.1590   -0.8492 C   0  0  0  0  0
    2.4525    2.4503   -0.3527 H   0  0  0  0  0
    4.5256    1.2439   -0.7383 O   0  0  0  0  0
  1  2  1  0  0  0
  2 17  1  0  0  0
  2  5  1  0  0  0
  2  3  1  0  0  0
  3  4  1  0  0  0
  5  6  1  0  0  0
  6  8  1  0  0  0
  6  7  1  0  0  0
  8 14  1  0  0  0
  8 10  1  0  0  0
  8  9  1  0  0  0
 10 11  1  0  0  0
 11 13  2  0  0  0
 11 12  1  0  0  0
 14 17  1  0  0  0
 14 16  1  0  0  0
 14 15  1  0  0  0
 17 19  1  0  0  0
 17 18  1  0  0  0
M  END
> <SMILES>
[H]C1(CO)(OC(O)C([H])(NC(C)=O)C([H])(O)C1([H])(O))

> <NAME>
CPD-3604

> <BioCyc_link>
http://biocyc.org/HUMAN/NEW-IMAGE?object=CPD-3604

> <BioCyc_name_HTML>
<i>N</i>-acetyl-D-galactosamine

> <CAS>
31022-50-1

> <KEGG_ID>
C01132

> <toxTree.tree.cramer.CramerTreeResult>


> <FORMULA>


> <toxTree.tree.cramer.CramerRules>


$$$$
ADENOSYL-HOMO-CYS
 OpenBabel30120812303D

 31 33  0  0  0  0  0  0  0  0999 V2000
    1.0000    0.0000    0.0000 H   0  0  0  0  0
    2.5000    0.0000    0.0000 C   0  0  0  0  0
    2.9931   -0.6977    1.2329 N   0  0  0  0  0
    3.0193   -0.7348   -1.2002 C   0  0  0  0  0
    2.5089   -2.1452   -1.1833 C   0  0  0  0  0
    3.0282   -2.8800   -2.3834 S   0  0  0  0  0
    2.5178   -4.2904   -2.3666 C   0  0  0  0  0
    3.0371   -5.0252   -3.5667 C   0  0  0  0  0
    2.4895   -4.2571   -4.7329 H   0  0  0  0  0
    4.5804   -5.0925   -3.6735 O   0  0  0  0  0
    4.8039   -6.3236   -4.5916 C   0  0  0  0  0
    6.1885   -6.8867   -4.4655 H   0  0  0  0  0
    4.6487   -5.9573   -6.0379 N   0  0  0  0  0
    4.7236   -4.7148   -6.5410 C   0  0  0  0  0
    4.6289   -4.7614   -7.9377 N   0  0  0  0  0
    4.4961   -6.0171   -8.3132 C   0  0  0  0  0
    4.3530   -6.7048   -9.5966 C   0  0  0  0  0
    4.3412   -5.9469  -10.8910 N   0  0  0  0  0
    4.2291   -8.0824   -9.5679 N   0  0  0  0  0
    4.2553   -8.7656   -8.3569 C   0  0  0  0  0
    4.3819   -8.1713   -7.1995 N   0  0  0  0  0
    4.5039   -6.8372   -7.0924 C   0  0  0  0  0
    3.7184   -7.3276   -4.1503 C   0  0  0  0  0
    4.2758   -8.3316   -3.1854 H   0  0  0  0  0
    3.1976   -8.0994   -5.3264 O   0  0  0  0  0
    2.5953   -6.5017   -3.4986 C   0  0  0  0  0
    2.3695   -6.9293   -2.0787 H   0  0  0  0  0
    1.2977   -6.7027   -4.2239 O   0  0  0  0  0
    3.0007    1.4140    0.0000 C   0  0  0  0  0
    2.0265    2.5546    0.0000 O   0  0  0  0  0
    4.4756    1.6873    0.0000 O   0  0  0  0  0
  1  2  1  0  0  0
  2 29  1  0  0  0
  2  4  1  0  0  0
  2  3  1  0  0  0
  4  5  1  0  0  0
  5  6  1  0  0  0
  6  7  1  0  0  0
  7  8  1  0  0  0
  8 26  1  0  0  0
  8 10  1  0  0  0
  8  9  1  0  0  0
 10 11  1  0  0  0
 11 23  1  0  0  0
 11 13  1  0  0  0
 11 12  1  0  0  0
 13 22  1  0  0  0
 13 14  1  0  0  0
 14 15  2  0  0  0
 15 16  1  0  0  0
 16 22  2  0  0  0
 16 17  1  0  0  0
 17 19  2  0  0  0
 17 18  1  0  0  0
 19 20  1  0  0  0
 20 21  2  0  0  0
 21 22  1  0  0  0
 23 26  1  0  0  0
 23 25  1  0  0  0
 23 24  1  0  0  0
 26 28  1  0  0  0
 26 27  1  0  0  0
 29 31  1  0  0  0
 29 30  2  0  0  0
M  END
> <SMILES>
[H]C(N)(CCSCC3([H])(OC([H])(N2C=NC=1C(N)=NC=NC=12)C([H])(O)C3([H])(O)))C(=O)O

> <NAME>
ADENOSYL-HOMO-CYS

> <BioCyc_link>
http://biocyc.org/HUMAN/NEW-IMAGE?object=ADENOSYL-HOMO-CYS

> <BioCyc_name_HTML>
<i>S</i>-adenosyl-L-homocysteine

> <CAS>
979-92-0

> <KEGG_ID>
C00021

> <toxTree.tree.cramer.CramerTreeResult>


> <FORMULA>


> <toxTree.tree.cramer.CramerRules>


$$$$
N-ACETYL-D-GLUCOSAMINE
 OpenBabel30120812303D

 19 19  0  0  0  0  0  0  0  0999 V2000
    1.0000    0.0000    0.0000 H   0  0  0  0  0
    2.5000    0.0000    0.0000 C   0  0  0  0  0
    2.9688    0.1628    1.4155 C   0  0  0  0  0
    4.4684    0.1666    1.4490 O   0  0  0  0  0
    3.0315   -1.3200   -0.5633 O   0  0  0  0  0
    2.6379   -1.4463   -1.9315 C   0  0  0  0  0
    3.0711   -2.7838   -2.4545 O   0  0  0  0  0
    3.1450   -0.4160   -2.7815 C   0  0  0  0  0
    2.6818   -0.6625   -4.1867 H   0  0  0  0  0
    4.6449   -0.4238   -2.7694 N   0  0  0  0  0
    5.4067    0.5734   -3.5911 C   0  0  0  0  0
    4.6686    1.5784   -4.4249 C   0  0  0  0  0
    6.9067    0.5656   -3.5791 O   0  0  0  0  0
    2.6181    0.9406   -2.3079 C   0  0  0  0  0
    1.1216    0.9571   -2.4091 H   0  0  0  0  0
    3.1588    2.0403   -3.1730 O   0  0  0  0  0
    3.0321    1.1590   -0.8492 C   0  0  0  0  0
    2.4525    2.4503   -0.3527 H   0  0  0  0  0
    4.5256    1.2439   -0.7383 O   0  0  0  0  0
  1  2  1  0  0  0
  2 17  1  0  0  0
  2  5  1  0  0  0
  2  3  1  0  0  0
  3  4  1  0  0  0
  5  6  1  0  0  0
  6  8  1  0  0  0
  6  7  1  0  0  0
  8 14  1  0  0  0
  8 10  1  0  0  0
  8  9  1  0  0  0
 10 11  1  0  0  0
 11 13  2  0  0  0
 11 12  1  0  0  0
 14 17  1  0  0  0
 14 16  1  0  0  0
 14 15  1  0  0  0
 17 19  1  0  0  0
 17 18  1  0  0  0
M  END
> <SMILES>
[H]C1(CO)(OC(O)C([H])(NC(C)=O)C([H])(O)C1([H])(O))

> <NAME>
N-ACETYL-D-GLUCOSAMINE

> <BioCyc_link>
http://biocyc.org/HUMAN/NEW-IMAGE?object=N-ACETYL-D-GLUCOSAMINE

> <BioCyc_name_HTML>
<i>N</i>-acetyl-D-glucosamine

> <CAS>
7512-17-6

> <KEGG_ID>
C00140

> <toxTree.tree.cramer.CramerTreeResult>


> <FORMULA>


> <toxTree.tree.cramer.CramerRules>


$$$$
METHYLENE-THF
 OpenBabel30120812303D

 34 37  0  0  0  0  0  0  0  0999 V2000
    1.0000    0.0000    0.0000 H   0  0  0  0  0
    2.5000    0.0000    0.0000 C   0  0  0  0  0
    3.3642   -1.1899    0.4324 C   0  0  0  0  0
    4.4207   -1.4331   -0.6438 N   0  0  0  0  0
    5.1501   -0.1558   -0.9691 C   0  0  0  0  0
    6.3673   -0.2603   -1.6343 N   0  0  0  0  0
    7.0860    0.8650   -1.9686 C   0  0  0  0  0
    8.3984    0.7375   -2.6837 N   0  0  0  0  0
    6.5857    2.1261   -1.6380 N   0  0  0  0  0
    5.3691    2.2262   -0.9664 C   0  0  0  0  0
    4.8307    3.5768   -0.5975 O   0  0  0  0  0
    4.6532    1.0865   -0.6368 C   0  0  0  0  0
    3.3460    1.2679    0.0906 N   0  0  0  0  0
    4.5485   -0.7941   -0.8450 C   0  0  0  0  0
    5.7648    1.3328   -1.1653 N   0  0  0  0  0
    5.9142   -0.1969   -1.2425 C   0  0  0  0  0
    6.0772    2.7985   -1.2281 C   0  0  0  0  0
    7.3711    3.2221   -1.4471 C   0  0  0  0  0
    7.6578    4.5878   -1.4935 C   0  0  0  0  0
    6.6293    5.5159   -1.3234 C   0  0  0  0  0
    5.3386    5.0791   -1.1110 C   0  0  0  0  0
    5.0610    3.7237   -1.0661 C   0  0  0  0  0
    6.9271    6.9853   -1.3716 C   0  0  0  0  0
    8.3315    7.4586   -1.6027 O   0  0  0  0  0
    5.8205    7.9812   -1.1887 N   0  0  0  0  0
    6.1183    9.4506   -1.2368 C   0  0  0  0  0
    6.7365    9.8122   -2.5548 C   0  0  0  0  0
    8.0011    9.0285   -2.7466 C   0  0  0  0  0
    8.6192    9.3902   -4.0645 C   0  0  0  0  0
    7.9561   10.4018   -4.9516 O   0  0  0  0  0
    9.9005    8.7401   -4.4955 O   0  0  0  0  0
    4.8511   10.2254   -1.0276 C   0  0  0  0  0
    3.5553    9.5006   -0.8145 O   0  0  0  0  0
    4.8798   11.7252   -1.0314 O   0  0  0  0  0
  1  2  1  0  0  0
  2  3  1  0  0  0
  2 13  1  0  0  0
  2 16  1  0  0  0
  3  4  1  0  0  0
  4  5  1  0  0  0
  5  6  1  0  0  0
  5 12  2  0  0  0
  6  7  2  0  0  0
  7  9  1  0  0  0
  7  8  1  0  0  0
  9 10  1  0  0  0
 10 12  1  0  0  0
 10 11  2  0  0  0
 12 13  1  0  0  0
 13 14  1  0  0  0
 14 15  1  0  0  0
 15 16  1  0  0  0
 15 17  1  0  0  0
 17 22  1  0  0  0
 17 18  2  0  0  0
 18 19  1  0  0  0
 19 20  2  0  0  0
 20 21  1  0  0  0
 20 23  1  0  0  0
 21 22  2  0  0  0
 23 25  1  0  0  0
 23 24  2  0  0  0
 25 26  1  0  0  0
 26 32  1  0  0  0
 26 27  1  0  0  0
 27 28  1  0  0  0
 28 29  1  0  0  0
 29 31  1  0  0  0
 29 30  2  0  0  0
 32 34  1  0  0  0
 32 33  2  0  0  0
M  END
> <SMILES>
[H]C24(CNC=1N=C(N)NC(=O)C=1N4(CN(C2)C3=CC=C(C=C3)C(=O)NC(CCC(=O)O)C(=O)O))

> <NAME>
METHYLENE-THF

> <BioCyc_link>
http://biocyc.org/HUMAN/NEW-IMAGE?object=METHYLENE-THF

> <BioCyc_name_HTML>
5,10-methylene-THF

> <CAS>


> <KEGG_ID>
C00143

> <toxTree.tree.cramer.CramerTreeResult>


> <FORMULA>


> <toxTree.tree.cramer.CramerRules>


$$$$
5-METHYLTHIOADENOSINE
 OpenBabel30120812303D

 24 26  0  0  0  0  0  0  0  0999 V2000
    1.0000    0.0000    0.0000 H   0  0  0  0  0
    2.5000    0.0000    0.0000 C   0  0  0  0  0
    2.9034    0.1217   -1.4396 C   0  0  0  0  0
    4.3999    0.1302   -1.5413 S   0  0  0  0  0
    4.8033    0.2519   -2.9809 C   0  0  0  0  0
    3.0599    1.1537    0.8679 O   0  0  0  0  0
    4.4904    0.6582    1.2094 C   0  0  0  0  0
    5.0630    1.3496    2.4111 H   0  0  0  0  0
    5.4454    0.9430    0.0883 N   0  0  0  0  0
    6.1375    0.0329   -0.6155 C   0  0  0  0  0
    6.9010    0.6737   -1.5995 N   0  0  0  0  0
    6.6943    1.9723   -1.5194 C   0  0  0  0  0
    7.1824    3.1454   -2.2447 C   0  0  0  0  0
    8.1503    3.0122   -3.3829 N   0  0  0  0  0
    6.7152    4.3825   -1.8381 N   0  0  0  0  0
    5.8084    4.4812   -0.7884 C   0  0  0  0  0
    5.3597    3.4468   -0.1271 N   0  0  0  0  0
    5.7422    2.1921   -0.4204 C   0  0  0  0  0
    4.3235   -0.8601    1.4286 C   0  0  0  0  0
    4.1957   -1.1812    2.8882 H   0  0  0  0  0
    5.5233   -1.6057    0.9241 O   0  0  0  0  0
    3.0578   -1.2782    0.6595 C   0  0  0  0  0
    2.0467   -1.8906    1.5829 H   0  0  0  0  0
    3.3824   -2.3132   -0.3765 O   0  0  0  0  0
  1  2  1  0  0  0
  2 22  1  0  0  0
  2  6  1  0  0  0
  2  3  1  0  0  0
  3  4  1  0  0  0
  4  5  1  0  0  0
  6  7  1  0  0  0
  7 19  1  0  0  0
  7  9  1  0  0  0
  7  8  1  0  0  0
  9 18  1  0  0  0
  9 10  1  0  0  0
 10 11  2  0  0  0
 11 12  1  0  0  0
 12 18  2  0  0  0
 12 13  1  0  0  0
 13 15  2  0  0  0
 13 14  1  0  0  0
 15 16  1  0  0  0
 16 17  2  0  0  0
 17 18  1  0  0  0
 19 22  1  0  0  0
 19 21  1  0  0  0
 19 20  1  0  0  0
 22 24  1  0  0  0
 22 23  1  0  0  0
M  END
> <SMILES>
[H]C3(CSC)(OC([H])(N2C=NC=1C(N)=NC=NC=12)C([H])(O)C3([H])(O))

> <NAME>
5-METHYLTHIOADENOSINE

> <BioCyc_link>
http://biocyc.org/HUMAN/NEW-IMAGE?object=5-METHYLTHIOADENOSINE

> <BioCyc_name_HTML>
<i>S</i>-methyl-5'-thioadenosine

> <CAS>
2457-80-9

> <KEGG_ID>
C00170

> <toxTree.tree.cramer.CramerTreeResult>


> <FORMULA>


> <toxTree.tree.cramer.CramerRules>


$$$$
N-ACETYLNEURAMINATE
 OpenBabel30120812303D

 26 26  0  0  0  0  0  0  0  0999 V2000
    1.0000    0.0000    0.0000 H   0  0  0  0  0
    2.5000    0.0000    0.0000 C   0  0  0  0  0
    2.9931   -0.6977    1.2329 O   0  0  0  0  0
    3.0193   -0.7348   -1.2002 C   0  0  0  0  0
    2.5089   -2.1452   -1.1833 O   0  0  0  0  0
    3.0007    1.4140    0.0000 C   0  0  0  0  0
    2.5076    2.1117   -1.2329 H   0  0  0  0  0
    2.4814    2.1488    1.2002 O   0  0  0  0  0
    4.5007    1.4140    0.0000 C   0  0  0  0  0
    4.9695    0.2207    0.7786 H   0  0  0  0  0
    5.0322    1.3275   -1.4326 O   0  0  0  0  0
    4.6386    2.4947   -2.1574 C   0  0  0  0  0
    3.1447    2.5741   -2.0480 O   0  0  0  0  0
    5.1457    3.7158   -1.6160 C   0  0  0  0  0
    4.6188    3.8989   -0.1908 C   0  0  0  0  0
    3.1223    3.9968   -0.2213 H   0  0  0  0  0
    5.1595    5.1644    0.4059 O   0  0  0  0  0
    5.0328    2.6919    0.6569 C   0  0  0  0  0
    4.4532    2.8252    2.0339 H   0  0  0  0  0
    6.5263    2.6306    0.7824 N   0  0  0  0  0
    7.1680    1.5281    1.5715 C   0  0  0  0  0
    6.3162    0.4868    2.2350 C   0  0  0  0  0
    8.6615    1.4669    1.6970 O   0  0  0  0  0
    5.0718    2.3644   -3.5876 C   0  0  0  0  0
    5.8004    1.1342   -4.0414 O   0  0  0  0  0
    4.7765    3.4642   -4.5639 O   0  0  0  0  0
  1  2  1  0  0  0
  2  6  1  0  0  0
  2  4  1  0  0  0
  2  3  1  0  0  0
  4  5  1  0  0  0
  6  9  1  0  0  0
  6  8  1  0  0  0
  6  7  1  0  0  0
  9 18  1  0  0  0
  9 11  1  0  0  0
  9 10  1  0  0  0
 11 12  1  0  0  0
 12 14  1  0  0  0
 12 24  1  0  0  0
 12 13  1  0  0  0
 14 15  1  0  0  0
 15 18  1  0  0  0
 15 17  1  0  0  0
 15 16  1  0  0  0
 18 20  1  0  0  0
 18 19  1  0  0  0
 20 21  1  0  0  0
 21 23  2  0  0  0
 21 22  1  0  0  0
 24 26  1  0  0  0
 24 25  2  0  0  0
M  END
> <SMILES>
[H]C(O)(CO)C([H])(O)C1([H])(OC(O)(CC([H])(O)C1([H])(NC(C)=O))C(=O)O)

> <NAME>
N-ACETYLNEURAMINATE

> <BioCyc_link>
http://biocyc.org/HUMAN/NEW-IMAGE?object=N-ACETYLNEURAMINATE

> <BioCyc_name_HTML>
<i>N</i>-acetylneuraminate

> <CAS>
131-48-6

> <KEGG_ID>
C00270

> <toxTree.tree.cramer.CramerTreeResult>


> <FORMULA>


> <toxTree.tree.cramer.CramerRules>


$$$$
GLUCOSAMINE
 OpenBabel30120812303D

 16 16  0  0  0  0  0  0  0  0999 V2000
    1.0000    0.0000    0.0000 H   0  0  0  0  0
    2.5000    0.0000    0.0000 C   0  0  0  0  0
    2.9688    0.1628    1.4155 N   0  0  0  0  0
    3.0315   -1.3200   -0.5633 C   0  0  0  0  0
    2.5069   -2.4752    0.2370 O   0  0  0  0  0
    2.6379   -1.4463   -1.9315 O   0  0  0  0  0
    3.1450   -0.4160   -2.7815 C   0  0  0  0  0
    2.6818   -0.6625   -4.1867 H   0  0  0  0  0
    4.6449   -0.4238   -2.7694 C   0  0  0  0  0
    5.1585    0.6633   -3.6664 O   0  0  0  0  0
    2.6181    0.9406   -2.3079 C   0  0  0  0  0
    1.1216    0.9571   -2.4091 H   0  0  0  0  0
    3.1588    2.0403   -3.1730 O   0  0  0  0  0
    3.0321    1.1590   -0.8492 C   0  0  0  0  0
    2.4525    2.4503   -0.3527 H   0  0  0  0  0
    4.5256    1.2439   -0.7383 O   0  0  0  0  0
  1  2  1  0  0  0
  2 14  1  0  0  0
  2  4  1  0  0  0
  2  3  1  0  0  0
  4  6  1  0  0  0
  4  5  1  0  0  0
  6  7  1  0  0  0
  7 11  1  0  0  0
  7  9  1  0  0  0
  7  8  1  0  0  0
  9 10  1  0  0  0
 11 14  1  0  0  0
 11 13  1  0  0  0
 11 12  1  0  0  0
 14 16  1  0  0  0
 14 15  1  0  0  0
M  END
> <SMILES>
[H]C1(N)(C(O)OC([H])(CO)C([H])(O)C1([H])(O))

> <NAME>
GLUCOSAMINE

> <BioCyc_link>
http://biocyc.org/HUMAN/NEW-IMAGE?object=GLUCOSAMINE

> <BioCyc_name_HTML>
glucosamine

> <CAS>
3416-24-8

> <KEGG_ID>
C00329

> <toxTree.tree.cramer.CramerTreeResult>


> <FORMULA>


> <toxTree.tree.cramer.CramerRules>


$$$$
5-METHYL-THF
 OpenBabel30120812303D

 34 36  0  0  0  0  0  0  0  0999 V2000
    1.0000    0.0000    0.0000 H   0  0  0  0  0
    2.5000    0.0000    0.0000 C   0  0  0  0  0
    2.9931   -0.6977    1.2329 C   0  0  0  0  0
    2.4869    0.0185    2.4498 C   0  0  0  0  0
    2.9800   -0.6792    3.6827 C   0  0  0  0  0
    3.8428   -1.9000    3.5593 O   0  0  0  0  0
    2.6103   -0.1561    5.0391 O   0  0  0  0  0
    3.0193   -0.7348   -1.2002 N   0  0  0  0  0
    2.6508   -2.1726   -1.4167 C   0  0  0  0  0
    1.7630   -2.8756   -0.4330 O   0  0  0  0  0
    3.1701   -2.9074   -2.6168 C   0  0  0  0  0
    2.9289   -4.2637   -2.6817 C   0  0  0  0  0
    3.2603   -4.9749   -3.8367 C   0  0  0  0  0
    3.8289   -4.3050   -4.9213 C   0  0  0  0  0
    4.0593   -2.9475   -4.8456 C   0  0  0  0  0
    3.7285   -2.2483   -3.6977 C   0  0  0  0  0
    4.1884   -5.0602   -6.1665 N   0  0  0  0  0
    4.7993   -4.3388   -7.3311 C   0  0  0  0  0
    5.0620   -5.3125   -8.4414 C   0  0  0  0  0
    4.9914   -6.7465   -7.9044 C   0  0  0  0  0
    4.8198   -7.6956   -9.0890 N   0  0  0  0  0
    5.8619   -7.4230  -10.1421 C   0  0  0  0  0
    6.0889   -8.4107  -11.0950 N   0  0  0  0  0
    7.0220   -8.2280  -12.0902 C   0  0  0  0  0
    7.2584   -9.3026  -13.1097 N   0  0  0  0  0
    7.7473   -7.0359  -12.1448 N   0  0  0  0  0
    7.5213   -6.0517  -11.1850 C   0  0  0  0  0
    8.3046   -4.7733  -11.2302 O   0  0  0  0  0
    6.5777   -6.2457  -10.1889 C   0  0  0  0  0
    6.3858   -5.1405   -9.1828 N   0  0  0  0  0
    7.3602   -4.0257   -8.9427 C   0  0  0  0  0
    3.0007    1.4140    0.0000 C   0  0  0  0  0
    2.0265    2.5546    0.0000 O   0  0  0  0  0
    4.4756    1.6873    0.0000 O   0  0  0  0  0
  1  2  1  0  0  0
  2 32  1  0  0  0
  2  8  1  0  0  0
  2  3  1  0  0  0
  3  4  1  0  0  0
  4  5  1  0  0  0
  5  7  1  0  0  0
  5  6  2  0  0  0
  8  9  1  0  0  0
  9 11  1  0  0  0
  9 10  2  0  0  0
 11 16  1  0  0  0
 11 12  2  0  0  0
 12 13  1  0  0  0
 13 14  2  0  0  0
 14 15  1  0  0  0
 14 17  1  0  0  0
 15 16  2  0  0  0
 17 18  1  0  0  0
 18 19  1  0  0  0
 19 20  1  0  0  0
 19 30  1  0  0  0
 20 21  1  0  0  0
 21 22  1  0  0  0
 22 23  1  0  0  0
 22 29  2  0  0  0
 23 24  2  0  0  0
 24 26  1  0  0  0
 24 25  1  0  0  0
 26 27  1  0  0  0
 27 29  1  0  0  0
 27 28  2  0  0  0
 29 30  1  0  0  0
 30 31  1  0  0  0
 32 34  1  0  0  0
 32 33  2  0  0  0
M  END
> <SMILES>
[H]C(CCC(=O)O)(NC(=O)C1=CC=C(C=C1)NCC3CNC=2N=C(N)NC(=O)C=2N3(C))C(=O)O

> <NAME>
5-METHYL-THF

> <BioCyc_link>
http://biocyc.org/HUMAN/NEW-IMAGE?object=5-METHYL-THF

> <BioCyc_name_HTML>
5-methyl-THF

> <CAS>
134-35-0

> <KEGG_ID>
C00440

> <toxTree.tree.cramer.CramerTreeResult>


> <FORMULA>


> <toxTree.tree.cramer.CramerRules>


$$$$
N-ACETYL-D-MANNOSAMINE
 OpenBabel30120812303D

 19 19  0  0  0  0  0  0  0  0999 V2000
    1.0000    0.0000    0.0000 H   0  0  0  0  0
    2.5000    0.0000    0.0000 C   0  0  0  0  0
    2.9688    0.1628    1.4155 C   0  0  0  0  0
    4.4684    0.1666    1.4490 O   0  0  0  0  0
    3.0315   -1.3200   -0.5633 O   0  0  0  0  0
    2.6379   -1.4463   -1.9315 C   0  0  0  0  0
    3.0711   -2.7838   -2.4545 O   0  0  0  0  0
    3.1450   -0.4160   -2.7815 C   0  0  0  0  0
    2.6818   -0.6625   -4.1867 H   0  0  0  0  0
    4.6449   -0.4238   -2.7694 N   0  0  0  0  0
    5.4067    0.5734   -3.5911 C   0  0  0  0  0
    4.6686    1.5784   -4.4249 C   0  0  0  0  0
    6.9067    0.5656   -3.5791 O   0  0  0  0  0
    2.6181    0.9406   -2.3079 C   0  0  0  0  0
    1.1216    0.9571   -2.4091 H   0  0  0  0  0
    3.1588    2.0403   -3.1730 O   0  0  0  0  0
    3.0321    1.1590   -0.8492 C   0  0  0  0  0
    2.4525    2.4503   -0.3527 H   0  0  0  0  0
    4.5256    1.2439   -0.7383 O   0  0  0  0  0
  1  2  1  0  0  0
  2 17  1  0  0  0
  2  5  1  0  0  0
  2  3  1  0  0  0
  3  4  1  0  0  0
  5  6  1  0  0  0
  6  8  1  0  0  0
  6  7  1  0  0  0
  8 14  1  0  0  0
  8 10  1  0  0  0
  8  9  1  0  0  0
 10 11  1  0  0  0
 11 13  2  0  0  0
 11 12  1  0  0  0
 14 17  1  0  0  0
 14 16  1  0  0  0
 14 15  1  0  0  0
 17 19  1  0  0  0
 17 18  1  0  0  0
M  END
> <SMILES>
[H]C1(CO)(OC(O)C([H])(NC(C)=O)C([H])(O)C1([H])(O))

> <NAME>
N-ACETYL-D-MANNOSAMINE

> <BioCyc_link>
http://biocyc.org/HUMAN/NEW-IMAGE?object=N-ACETYL-D-MANNOSAMINE

> <BioCyc_name_HTML>
<i>N</i>-acetyl-D-mannosamine

> <CAS>
3615-17-6

> <KEGG_ID>
C00645

> <toxTree.tree.cramer.CramerTreeResult>


> <FORMULA>


> <toxTree.tree.cramer.CramerRules>


$$$$
ALPHA-RIBAZOLE
 OpenBabel30120812303D

 22 24  0  0  0  0  0  0  0  0999 V2000
    1.0000    0.0000    0.0000 H   0  0  0  0  0
    2.5000    0.0000    0.0000 C   0  0  0  0  0
    2.9034    0.1217   -1.4396 C   0  0  0  0  0
    4.3999    0.1302   -1.5413 O   0  0  0  0  0
    3.0599    1.1537    0.8679 O   0  0  0  0  0
    4.4904    0.6582    1.2094 C   0  0  0  0  0
    5.0630    1.3496    2.4111 H   0  0  0  0  0
    4.3235   -0.8601    1.4286 C   0  0  0  0  0
    5.5233   -1.6057    0.9241 O   0  0  0  0  0
    3.0578   -1.2782    0.6595 C   0  0  0  0  0
    3.3824   -2.3132   -0.3765 O   0  0  0  0  0
    5.4454    0.9430    0.0883 N   0  0  0  0  0
    6.1375    0.0329   -0.6155 C   0  0  0  0  0
    6.9010    0.6737   -1.5995 N   0  0  0  0  0
    6.6943    1.9723   -1.5194 C   0  0  0  0  0
    7.1824    3.1454   -2.2447 C   0  0  0  0  0
    6.7152    4.3825   -1.8381 C   0  0  0  0  0
    7.1892    5.6241   -2.5335 C   0  0  0  0  0
    5.8084    4.4812   -0.7884 C   0  0  0  0  0
    5.3204    5.8440   -0.3949 C   0  0  0  0  0
    5.3597    3.4468   -0.1271 C   0  0  0  0  0
    5.7422    2.1921   -0.4204 C   0  0  0  0  0
  1  2  1  0  0  0
  2 10  1  0  0  0
  2  5  1  0  0  0
  2  3  1  0  0  0
  3  4  1  0  0  0
  5  6  1  0  0  0
  6  8  1  0  0  0
  6 12  1  0  0  0
  6  7  1  0  0  0
  8 10  1  0  0  0
  8  9  1  0  0  0
 10 11  1  0  0  0
 12 22  1  0  0  0
 12 13  1  0  0  0
 13 14  2  0  0  0
 14 15  1  0  0  0
 15 22  2  0  0  0
 15 16  1  0  0  0
 16 17  2  0  0  0
 17 19  1  0  0  0
 17 18  1  0  0  0
 19 21  2  0  0  0
 19 20  1  0  0  0
 21 22  1  0  0  0
M  END
> <SMILES>
[H]C1(CO)(OC([H])(C(O)C1(O))N3C=NC=2C=C(C)C(C)=CC=23)

> <NAME>
ALPHA-RIBAZOLE

> <BioCyc_link>
http://biocyc.org/HUMAN/NEW-IMAGE?object=ALPHA-RIBAZOLE

> <BioCyc_name_HTML>
&alpha;-ribazole

> <CAS>


> <KEGG_ID>
C05775

> <toxTree.tree.cramer.CramerTreeResult>


> <FORMULA>


> <toxTree.tree.cramer.CramerRules>


$$$$
PROTOPORPHYRIN_IX
 OpenBabel30120812303D

 42 45  0  0  0  0  0  0  0  0999 V2000
    1.0000    0.0000    0.0000 C   0  0  0  0  0
    2.5000    0.0000    0.0000 C   0  0  0  0  0
    3.2500    1.2990    0.0000 C   0  0  0  0  0
    4.5307    1.4150   -0.0107 C   0  0  0  0  0
    5.5017    0.2717   -0.0181 C   0  0  0  0  0
    4.8571    2.6785   -0.0142 C   0  0  0  0  0
    6.2495    3.2364   -0.0263 C   0  0  0  0  0
    6.4626    4.7212   -0.0290 C   0  0  0  0  0
    7.5956    5.4051   -0.0321 N   0  0  0  0  0
    7.5936    6.6691   -0.0341 C   0  0  0  0  0
    8.8888    7.4257   -0.0445 C   0  0  0  0  0
   10.1916    6.6824   -0.0525 C   0  0  0  0  0
   10.4117    5.3773   -0.0545 N   0  0  0  0  0
   11.5882    4.9151   -0.0617 C   0  0  0  0  0
   11.8164    3.4326   -0.0706 C   0  0  0  0  0
   10.6466    2.4937   -0.0709 C   0  0  0  0  0
   10.7041    1.1397   -0.0763 N   0  0  0  0  0
    9.4182    0.7122   -0.0632 C   0  0  0  0  0
    1.2324    2.7822    0.0361 C   0  0  0  0  0
    2.7021    2.4835    0.0109 C   0  0  0  0  0
    3.7060    3.3937   -0.0049 N   0  0  0  0  0
    8.6556    1.7712   -0.0573 C   0  0  0  0  0
    7.1558    1.7560   -0.0424 C   0  0  0  0  0
    9.3856    2.8300   -0.0660 C   0  0  0  0  0
    8.8666    4.2373   -0.0699 C   0  0  0  0  0
    9.8259    5.3904   -0.0803 C   0  0  0  0  0
   12.6425    5.7674   -0.0614 C   0  0  0  0  0
   14.1124    5.4687   -0.0608 C   0  0  0  0  0
   11.8209    7.3081   -0.0617 C   0  0  0  0  0
   12.3452    8.7135   -0.0679 C   0  0  0  0  0
   11.1954    9.6769   -0.0652 C   0  0  0  0  0
   11.7197   11.0822   -0.0714 C   0  0  0  0  0
   13.1990   11.3309   -0.0789 O   0  0  0  0  0
   10.7648   12.2390   -0.0702 O   0  0  0  0  0
    6.4137    7.3368   -0.0269 C   0  0  0  0  0
    6.1520    8.8138   -0.0193 C   0  0  0  0  0
    7.4568    9.5536   -0.0208 C   0  0  0  0  0
    7.1950   11.0306   -0.0132 C   0  0  0  0  0
    5.7850   11.5423   -0.0058 O   0  0  0  0  0
    8.3432   11.9958   -0.0131 O   0  0  0  0  0
    5.2823    6.0069   -0.0287 C   0  0  0  0  0
    3.7826    5.9786   -0.0297 C   0  0  0  0  0
  1  2  2  0  0  0
  2  3  1  0  0  0
  3 20  1  0  0  0
  3  4  2  0  0  0
  4  6  1  0  0  0
  4  5  1  0  0  0
  6 21  1  0  0  0
  6  7  2  0  0  0
  7  8  1  0  0  0
  8  9  2  0  0  0
  8 41  1  0  0  0
  9 10  1  0  0  0
 10 35  1  0  0  0
 10 11  2  0  0  0
 11 12  1  0  0  0
 12 13  2  0  0  0
 12 29  1  0  0  0
 13 14  1  0  0  0
 14 27  1  0  0  0
 14 15  2  0  0  0
 15 16  1  0  0  0
 16 17  1  0  0  0
 16 24  2  0  0  0
 17 18  1  0  0  0
 18 22  2  0  0  0
 19 20  2  0  0  0
 20 21  1  0  0  0
 22 24  1  0  0  0
 22 23  1  0  0  0
 24 25  1  0  0  0
 25 26  2  0  0  0
 27 29  2  0  0  0
 27 28  1  0  0  0
 29 30  1  0  0  0
 30 31  1  0  0  0
 31 32  1  0  0  0
 32 34  1  0  0  0
 32 33  2  0  0  0
 35 41  2  0  0  0
 35 36  1  0  0  0
 36 37  1  0  0  0
 37 38  1  0  0  0
 38 40  1  0  0  0
 38 39  2  0  0  0
 41 42  1  0  0  0
M  END
> <SMILES>
C=CC2=C(C)C1=CC5=NC(=CC4=NC(=CC=3NC(C=C2(N1))=C(C)C=3(C=C))C(C)=C4(CCC(=O)O))C(CCC(=O)O)=C5(C)

> <NAME>
PROTOPORPHYRIN_IX

> <BioCyc_link>
http://biocyc.org/HUMAN/NEW-IMAGE?object=PROTOPORPHYRIN_IX

> <BioCyc_name_HTML>
protoporphyrin

> <CAS>
553-12-8

> <KEGG_ID>
C02191

> <toxTree.tree.cramer.CramerTreeResult>


> <FORMULA>


> <toxTree.tree.cramer.CramerRules>


$$$$
SEROTONIN
 OpenBabel30120812303D

 13 14  0  0  0  0  0  0  0  0999 V2000
    1.0000    0.0000    0.0000 N   0  0  0  0  0
    2.5000    0.0000    0.0000 C   0  0  0  0  0
    3.0007    1.4140    0.0000 C   0  0  0  0  0
    4.5007    1.4140    0.0000 C   0  0  0  0  0
    5.2897    1.4097   -1.0863 C   0  0  0  0  0
    6.6350    1.4112   -0.6963 N   0  0  0  0  0
    6.6962    1.4168    0.6196 C   0  0  0  0  0
    7.7764    1.4206    1.6062 C   0  0  0  0  0
    7.4159    1.4195    2.9419 C   0  0  0  0  0
    6.0743    1.4276    3.3080 C   0  0  0  0  0
    5.7352    1.4410    4.7691 O   0  0  0  0  0
    5.0938    1.4242    2.4435 C   0  0  0  0  0
    5.3123    1.4184    1.1174 C   0  0  0  0  0
  1  2  1  0  0  0
  2  3  1  0  0  0
  3  4  1  0  0  0
  4 13  1  0  0  0
  4  5  2  0  0  0
  5  6  1  0  0  0
  6  7  1  0  0  0
  7 13  2  0  0  0
  7  8  1  0  0  0
  8  9  2  0  0  0
  9 10  1  0  0  0
 10 12  2  0  0  0
 10 11  1  0  0  0
 12 13  1  0  0  0
M  END
> <SMILES>
NCCC1=CNC=2C=CC(O)=CC1=2

> <NAME>
SEROTONIN

> <BioCyc_link>
http://biocyc.org/HUMAN/NEW-IMAGE?object=SEROTONIN

> <BioCyc_name_HTML>
serotonin

> <CAS>
50-67-9

> <KEGG_ID>
C00780

> <toxTree.tree.cramer.CramerTreeResult>


> <FORMULA>


> <toxTree.tree.cramer.CramerRules>


$$$$
THYMIDINE
 OpenBabel30120812303D

 20 21  0  0  0  0  0  0  0  0999 V2000
    1.0000    0.0000    0.0000 H   0  0  0  0  0
    2.5000    0.0000    0.0000 C   0  0  0  0  0
    2.9034    0.1217   -1.4396 O   0  0  0  0  0
    3.0599    1.1537    0.8679 C   0  0  0  0  0
    4.4904    0.6582    1.2094 C   0  0  0  0  0
    5.0630    1.3496    2.4111 H   0  0  0  0  0
    4.3235   -0.8601    1.4286 O   0  0  0  0  0
    3.0578   -1.2782    0.6595 C   0  0  0  0  0
    2.0467   -1.8906    1.5829 H   0  0  0  0  0
    3.3824   -2.3132   -0.3765 C   0  0  0  0  0
    2.1309   -2.6995   -1.1076 O   0  0  0  0  0
    5.4454    0.9430    0.0883 N   0  0  0  0  0
    6.0963   -0.0929   -0.5481 C   0  0  0  0  0
    6.9730    0.1781   -1.6005 C   0  0  0  0  0
    7.6892   -0.9435   -2.2928 C   0  0  0  0  0
    7.1798    1.4979   -2.0051 C   0  0  0  0  0
    8.1197    1.7993   -3.1346 O   0  0  0  0  0
    6.5181    2.5240   -1.3642 N   0  0  0  0  0
    5.6502    2.2487   -0.3216 C   0  0  0  0  0
    4.9291    3.3697    0.3665 O   0  0  0  0  0
  1  2  1  0  0  0
  2  8  1  0  0  0
  2  4  1  0  0  0
  2  3  1  0  0  0
  4  5  1  0  0  0
  5  7  1  0  0  0
  5 12  1  0  0  0
  5  6  1  0  0  0
  7  8  1  0  0  0
  8 10  1  0  0  0
  8  9  1  0  0  0
 10 11  1  0  0  0
 12 19  1  0  0  0
 12 13  1  0  0  0
 13 14  2  0  0  0
 14 16  1  0  0  0
 14 15  1  0  0  0
 16 18  1  0  0  0
 16 17  2  0  0  0
 18 19  1  0  0  0
 19 20  2  0  0  0
M  END
> <SMILES>
[H]C1(O)(CC([H])(OC1([H])(CO))N2C=C(C)C(=O)NC2(=O))

> <NAME>
THYMIDINE

> <BioCyc_link>
http://biocyc.org/HUMAN/NEW-IMAGE?object=THYMIDINE

> <BioCyc_name_HTML>
thymidine

> <CAS>
50-89-5

> <KEGG_ID>
C00214

> <toxTree.tree.cramer.CramerTreeResult>


> <FORMULA>


> <toxTree.tree.cramer.CramerRules>


$$$$
SUCROSE
 OpenBabel30120812303D

 31 32  0  0  0  0  0  0  0  0999 V2000
    1.0000    0.0000    0.0000 H   0  0  0  0  0
    2.5000    0.0000    0.0000 C   0  0  0  0  0
    2.9688    0.1628    1.4155 O   0  0  0  0  0
    3.0315   -1.3200   -0.5633 C   0  0  0  0  0
    4.5290   -1.3263   -0.4777 H   0  0  0  0  0
    2.5069   -2.4752    0.2370 O   0  0  0  0  0
    2.6379   -1.4463   -1.9315 C   0  0  0  0  0
    1.1440   -1.3129   -1.9536 H   0  0  0  0  0
    3.0711   -2.7838   -2.4545 C   0  0  0  0  0
    2.6585   -2.9175   -3.8904 O   0  0  0  0  0
    3.1450   -0.4160   -2.7815 O   0  0  0  0  0
    2.6181    0.9406   -2.3079 C   0  0  0  0  0
    1.1216    0.9571   -2.4091 H   0  0  0  0  0
    3.1588    2.0403   -3.1730 O   0  0  0  0  0
    2.6315    3.3600   -2.6932 C   0  0  0  0  0
    1.2166    2.9982   -2.3508 C   0  0  0  0  0
    0.4992    4.2120   -1.8389 O   0  0  0  0  0
    3.3419    3.9575   -1.4538 O   0  0  0  0  0
    2.9102    5.4474   -1.5004 C   0  0  0  0  0
    3.8260    6.3328   -0.7084 H   0  0  0  0  0
    1.5487    5.6370   -0.9001 C   0  0  0  0  0
    1.1704    7.0871   -0.9649 O   0  0  0  0  0
    2.9109    5.7954   -3.0038 C   0  0  0  0  0
    4.1901    6.4723   -3.3978 H   0  0  0  0  0
    1.7984    6.7472   -3.3302 O   0  0  0  0  0
    2.7337    4.4680   -3.7618 C   0  0  0  0  0
    3.8898    4.2185   -4.6844 H   0  0  0  0  0
    1.4989    4.5019   -4.6128 O   0  0  0  0  0
    3.0321    1.1590   -0.8492 C   0  0  0  0  0
    2.4525    2.4503   -0.3527 H   0  0  0  0  0
    4.5256    1.2439   -0.7383 O   0  0  0  0  0
  1  2  1  0  0  0
  2 29  1  0  0  0
  2  4  1  0  0  0
  2  3  1  0  0  0
  4  7  1  0  0  0
  4  6  1  0  0  0
  4  5  1  0  0  0
  7 11  1  0  0  0
  7  9  1  0  0  0
  7  8  1  0  0  0
  9 10  1  0  0  0
 11 12  1  0  0  0
 12 29  1  0  0  0
 12 14  1  0  0  0
 12 13  1  0  0  0
 14 15  1  0  0  0
 15 26  1  0  0  0
 15 18  1  0  0  0
 15 16  1  0  0  0
 16 17  1  0  0  0
 18 19  1  0  0  0
 19 23  1  0  0  0
 19 21  1  0  0  0
 19 20  1  0  0  0
 21 22  1  0  0  0
 23 26  1  0  0  0
 23 25  1  0  0  0
 23 24  1  0  0  0
 26 28  1  0  0  0
 26 27  1  0  0  0
 29 31  1  0  0  0
 29 30  1  0  0  0
M  END
> <SMILES>
[H]C2(O)(C([H])(O)C([H])(CO)OC([H])(OC1(CO)(OC([H])(CO)C([H])(O)C1([H])(O)))C2([H])(O))

> <NAME>
SUCROSE

> <BioCyc_link>
http://biocyc.org/HUMAN/NEW-IMAGE?object=SUCROSE

> <BioCyc_name_HTML>
sucrose

> <CAS>
57-50-1

> <KEGG_ID>
C00089

> <toxTree.tree.cramer.CramerTreeResult>


> <FORMULA>


> <toxTree.tree.cramer.CramerRules>


$$$$
INOSINE
 OpenBabel30120812303D

 23 25  0  0  0  0  0  0  0  0999 V2000
    1.0000    0.0000    0.0000 H   0  0  0  0  0
    2.5000    0.0000    0.0000 C   0  0  0  0  0
    2.9034    0.1217   -1.4396 C   0  0  0  0  0
    4.3999    0.1302   -1.5413 O   0  0  0  0  0
    3.0599    1.1537    0.8679 O   0  0  0  0  0
    4.4904    0.6582    1.2094 C   0  0  0  0  0
    5.0630    1.3496    2.4111 H   0  0  0  0  0
    5.4454    0.9430    0.0883 N   0  0  0  0  0
    6.1375    0.0329   -0.6155 C   0  0  0  0  0
    6.9010    0.6737   -1.5995 N   0  0  0  0  0
    6.6943    1.9723   -1.5194 C   0  0  0  0  0
    7.1824    3.1454   -2.2447 C   0  0  0  0  0
    8.1503    3.0122   -3.3829 O   0  0  0  0  0
    6.7152    4.3825   -1.8381 N   0  0  0  0  0
    5.8084    4.4812   -0.7884 C   0  0  0  0  0
    5.3597    3.4468   -0.1271 N   0  0  0  0  0
    5.7422    2.1921   -0.4204 C   0  0  0  0  0
    4.3235   -0.8601    1.4286 C   0  0  0  0  0
    4.1957   -1.1812    2.8882 H   0  0  0  0  0
    5.5233   -1.6057    0.9241 O   0  0  0  0  0
    3.0578   -1.2782    0.6595 C   0  0  0  0  0
    2.0467   -1.8906    1.5829 H   0  0  0  0  0
    3.3824   -2.3132   -0.3765 O   0  0  0  0  0
  1  2  1  0  0  0
  2 21  1  0  0  0
  2  5  1  0  0  0
  2  3  1  0  0  0
  3  4  1  0  0  0
  5  6  1  0  0  0
  6 18  1  0  0  0
  6  8  1  0  0  0
  6  7  1  0  0  0
  8 17  1  0  0  0
  8  9  1  0  0  0
  9 10  2  0  0  0
 10 11  1  0  0  0
 11 17  2  0  0  0
 11 12  1  0  0  0
 12 14  1  0  0  0
 12 13  2  0  0  0
 14 15  1  0  0  0
 15 16  2  0  0  0
 16 17  1  0  0  0
 18 21  1  0  0  0
 18 20  1  0  0  0
 18 19  1  0  0  0
 21 23  1  0  0  0
 21 22  1  0  0  0
M  END
> <SMILES>
[H]C3(CO)(OC([H])(N2C=NC=1C(=O)NC=NC=12)C([H])(O)C3([H])(O))

> <NAME>
INOSINE

> <BioCyc_link>
http://biocyc.org/HUMAN/NEW-IMAGE?object=INOSINE

> <BioCyc_name_HTML>
inosine

> <CAS>
58-63-9

> <KEGG_ID>
C00294

> <toxTree.tree.cramer.CramerTreeResult>


> <FORMULA>


> <toxTree.tree.cramer.CramerRules>


$$$$
HIS
 OpenBabel30120812303D

 12 12  0  0  0  0  0  0  0  0999 V2000
    1.0000    0.0000    0.0000 H   0  0  0  0  0
    2.5000    0.0000    0.0000 C   0  0  0  0  0
    2.9931   -0.6977    1.2329 N   0  0  0  0  0
    3.0193   -0.7348   -1.2002 C   0  0  0  0  0
    2.5089   -2.1452   -1.1833 C   0  0  0  0  0
    3.2613   -3.2715   -1.2272 C   0  0  0  0  0
    2.3869   -4.3058   -1.1790 N   0  0  0  0  0
    1.1862   -3.7981   -1.1168 C   0  0  0  0  0
    1.2585   -2.5142   -1.1236 N   0  0  0  0  0
    3.0007    1.4140    0.0000 C   0  0  0  0  0
    2.0265    2.5546    0.0000 O   0  0  0  0  0
    4.4756    1.6873    0.0000 O   0  0  0  0  0
  1  2  1  0  0  0
  2 10  1  0  0  0
  2  4  1  0  0  0
  2  3  1  0  0  0
  4  5  1  0  0  0
  5  6  2  0  0  0
  5  9  1  0  0  0
  6  7  1  0  0  0
  7  8  2  0  0  0
  8  9  1  0  0  0
 10 12  1  0  0  0
 10 11  2  0  0  0
M  END
> <SMILES>
[H]C(N)(CC1=CN=CN1)C(=O)O

> <NAME>
HIS

> <BioCyc_link>
http://biocyc.org/HUMAN/NEW-IMAGE?object=HIS

> <BioCyc_name_HTML>
L-histidine

> <CAS>
71-00-1

> <KEGG_ID>
C00135

> <toxTree.tree.cramer.CramerTreeResult>


> <FORMULA>


> <toxTree.tree.cramer.CramerRules>


$$$$
XANTHOSINE
 OpenBabel30120812303D

 24 26  0  0  0  0  0  0  0  0999 V2000
    1.0000    0.0000    0.0000 H   0  0  0  0  0
    2.5000    0.0000    0.0000 C   0  0  0  0  0
    2.9034    0.1217   -1.4396 C   0  0  0  0  0
    4.3999    0.1302   -1.5413 O   0  0  0  0  0
    3.0599    1.1537    0.8679 O   0  0  0  0  0
    4.4904    0.6582    1.2094 C   0  0  0  0  0
    5.0630    1.3496    2.4111 H   0  0  0  0  0
    5.4454    0.9430    0.0883 N   0  0  0  0  0
    6.1375    0.0329   -0.6155 C   0  0  0  0  0
    6.9010    0.6737   -1.5995 N   0  0  0  0  0
    6.6943    1.9723   -1.5194 C   0  0  0  0  0
    7.1824    3.1454   -2.2447 C   0  0  0  0  0
    8.1503    3.0122   -3.3829 O   0  0  0  0  0
    6.7152    4.3825   -1.8381 N   0  0  0  0  0
    5.8084    4.4812   -0.7884 C   0  0  0  0  0
    5.3204    5.8440   -0.3949 O   0  0  0  0  0
    5.3597    3.4468   -0.1271 N   0  0  0  0  0
    5.7422    2.1921   -0.4204 C   0  0  0  0  0
    4.3235   -0.8601    1.4286 C   0  0  0  0  0
    4.1957   -1.1812    2.8882 H   0  0  0  0  0
    5.5233   -1.6057    0.9241 O   0  0  0  0  0
    3.0578   -1.2782    0.6595 C   0  0  0  0  0
    2.0467   -1.8906    1.5829 H   0  0  0  0  0
    3.3824   -2.3132   -0.3765 O   0  0  0  0  0
  1  2  1  0  0  0
  2 22  1  0  0  0
  2  5  1  0  0  0
  2  3  1  0  0  0
  3  4  1  0  0  0
  5  6  1  0  0  0
  6 19  1  0  0  0
  6  8  1  0  0  0
  6  7  1  0  0  0
  8 18  1  0  0  0
  8  9  1  0  0  0
  9 10  2  0  0  0
 10 11  1  0  0  0
 11 18  2  0  0  0
 11 12  1  0  0  0
 12 14  1  0  0  0
 12 13  2  0  0  0
 14 15  1  0  0  0
 15 17  1  0  0  0
 15 16  2  0  0  0
 17 18  1  0  0  0
 19 22  1  0  0  0
 19 21  1  0  0  0
 19 20  1  0  0  0
 22 24  1  0  0  0
 22 23  1  0  0  0
M  END
> <SMILES>
[H]C3(CO)(OC([H])(N2C=NC=1C(=O)NC(=O)NC=12)C([H])(O)C3([H])(O))

> <NAME>
XANTHOSINE

> <BioCyc_link>
http://biocyc.org/HUMAN/NEW-IMAGE?object=XANTHOSINE

> <BioCyc_name_HTML>
xanthosine

> <CAS>
146-80-5

> <KEGG_ID>
C01762

> <toxTree.tree.cramer.CramerTreeResult>


> <FORMULA>


> <toxTree.tree.cramer.CramerRules>


$$$$
DEOXYINOSINE
 OpenBabel30120812303D

 21 23  0  0  0  0  0  0  0  0999 V2000
    1.0000    0.0000    0.0000 H   0  0  0  0  0
    2.5000    0.0000    0.0000 C   0  0  0  0  0
    2.9034    0.1217   -1.4396 O   0  0  0  0  0
    3.0599    1.1537    0.8679 C   0  0  0  0  0
    4.4904    0.6582    1.2094 C   0  0  0  0  0
    5.0630    1.3496    2.4111 H   0  0  0  0  0
    4.3235   -0.8601    1.4286 O   0  0  0  0  0
    3.0578   -1.2782    0.6595 C   0  0  0  0  0
    2.0467   -1.8906    1.5829 H   0  0  0  0  0
    3.3824   -2.3132   -0.3765 C   0  0  0  0  0
    2.1309   -2.6995   -1.1076 O   0  0  0  0  0
    5.4454    0.9430    0.0883 N   0  0  0  0  0
    6.1375    0.0329   -0.6155 C   0  0  0  0  0
    6.9010    0.6737   -1.5995 N   0  0  0  0  0
    6.6943    1.9723   -1.5194 C   0  0  0  0  0
    7.1824    3.1454   -2.2447 C   0  0  0  0  0
    8.1503    3.0122   -3.3829 O   0  0  0  0  0
    6.7152    4.3825   -1.8381 N   0  0  0  0  0
    5.8084    4.4812   -0.7884 C   0  0  0  0  0
    5.3597    3.4468   -0.1271 N   0  0  0  0  0
    5.7422    2.1921   -0.4204 C   0  0  0  0  0
  1  2  1  0  0  0
  2  8  1  0  0  0
  2  4  1  0  0  0
  2  3  1  0  0  0
  4  5  1  0  0  0
  5  7  1  0  0  0
  5 12  1  0  0  0
  5  6  1  0  0  0
  7  8  1  0  0  0
  8 10  1  0  0  0
  8  9  1  0  0  0
 10 11  1  0  0  0
 12 21  1  0  0  0
 12 13  1  0  0  0
 13 14  2  0  0  0
 14 15  1  0  0  0
 15 21  2  0  0  0
 15 16  1  0  0  0
 16 18  1  0  0  0
 16 17  2  0  0  0
 18 19  1  0  0  0
 19 20  2  0  0  0
 20 21  1  0  0  0
M  END
> <SMILES>
[H]C1(O)(CC([H])(OC1([H])(CO))N3C=NC=2C(=O)NC=NC=23)

> <NAME>
DEOXYINOSINE

> <BioCyc_link>
http://biocyc.org/HUMAN/NEW-IMAGE?object=DEOXYINOSINE

> <BioCyc_name_HTML>
deoxyinosine

> <CAS>
890-38-0

> <KEGG_ID>
C05512

> <toxTree.tree.cramer.CramerTreeResult>


> <FORMULA>


> <toxTree.tree.cramer.CramerRules>


$$$$
HISTAMINE
 OpenBabel30120812303D

  8  8  0  0  0  0  0  0  0  0999 V2000
    1.0000    0.0000    0.0000 N   0  0  0  0  0
    2.5000    0.0000    0.0000 C   0  0  0  0  0
    3.0007    1.4140    0.0000 C   0  0  0  0  0
    4.5007    1.4140    0.0000 C   0  0  0  0  0
    5.3034    1.4139    1.0920 C   0  0  0  0  0
    6.5738    1.4028    0.6204 N   0  0  0  0  0
    6.5056    1.4032   -0.6828 C   0  0  0  0  0
    5.2737    1.4141   -1.0515 N   0  0  0  0  0
  1  2  1  0  0  0
  2  3  1  0  0  0
  3  4  1  0  0  0
  4  5  2  0  0  0
  4  8  1  0  0  0
  5  6  1  0  0  0
  6  7  2  0  0  0
  7  8  1  0  0  0
M  END
> <SMILES>
NCCC1=CN=CN1

> <NAME>
HISTAMINE

> <BioCyc_link>
http://biocyc.org/HUMAN/NEW-IMAGE?object=HISTAMINE

> <BioCyc_name_HTML>
histamine

> <CAS>
51-45-6

> <KEGG_ID>
C00388

> <toxTree.tree.cramer.CramerTreeResult>


> <FORMULA>


> <toxTree.tree.cramer.CramerRules>


$$$$
HYDROXYMETHYLBILANE
 OpenBabel30120812303D

 61 64  0  0  0  0  0  0  0  0999 V2000
    1.0000    0.0000    0.0000 O   0  0  0  0  0
    2.5000    0.0000    0.0000 C   0  0  0  0  0
    3.0007    1.4140    0.0000 C   0  0  0  0  0
    2.2395    2.5351   -0.0195 N   0  0  0  0  0
    3.1079    3.5753    0.0000 C   0  0  0  0  0
    2.7496    5.0319   -0.0040 C   0  0  0  0  0
    1.2573    5.1803   -0.0334 C   0  0  0  0  0
    0.3506    4.1731   -0.0504 N   0  0  0  0  0
   -0.8669    4.7681   -0.0636 C   0  0  0  0  0
   -2.1956    4.0722   -0.0785 C   0  0  0  0  0
   -1.9832    2.5873   -0.0766 C   0  0  0  0  0
   -0.7901    1.9474   -0.0176 N   0  0  0  0  0
   -1.0767    0.6229   -0.0300 C   0  0  0  0  0
   -0.0851   -0.5012    0.0260 C   0  0  0  0  0
    1.3041    0.0598    0.0996 C   0  0  0  0  0
    1.6392    1.3729    0.1148 N   0  0  0  0  0
    2.9913    1.4114    0.1987 C   0  0  0  0  0
    3.4152    0.1774    0.2239 C   0  0  0  0  0
    4.8531   -0.2406    0.3128 C   0  0  0  0  0
    4.9399   -1.7381    0.3167 C   0  0  0  0  0
    6.3778   -2.1560    0.4057 C   0  0  0  0  0
    7.4579   -1.1174    0.4739 O   0  0  0  0  0
    6.7355   -3.6126    0.4265 O   0  0  0  0  0
    2.4129   -0.6258    0.1608 C   0  0  0  0  0
    2.5042   -2.1230    0.1579 C   0  0  0  0  0
    1.1258   -2.7086    0.0740 C   0  0  0  0  0
   -0.0701   -1.8054    0.0089 O   0  0  0  0  0
    0.9432   -4.1973    0.0552 O   0  0  0  0  0
   -2.3746    0.5059   -0.0996 C   0  0  0  0  0
   -3.1243   -0.7928   -0.1368 C   0  0  0  0  0
   -4.5969   -0.5187   -0.2169 C   0  0  0  0  0
   -5.3466   -1.8174   -0.2540 C   0  0  0  0  0
   -4.5985   -3.1168   -0.2105 O   0  0  0  0  0
   -6.8444   -1.8167   -0.3348 O   0  0  0  0  0
   -2.9131    1.6733   -0.1315 C   0  0  0  0  0
   -4.3860    1.9433   -0.2186 C   0  0  0  0  0
   -4.6236    3.4243   -0.2327 C   0  0  0  0  0
   -3.4621    4.3709   -0.1641 O   0  0  0  0  0
   -6.0228    3.9587   -0.3155 O   0  0  0  0  0
   -0.6701    6.0582   -0.0611 C   0  0  0  0  0
   -1.7518    7.0973   -0.0725 C   0  0  0  0  0
   -1.1334    8.4639   -0.0653 C   0  0  0  0  0
   -2.2151    9.5031   -0.0767 C   0  0  0  0  0
   -3.6558    9.0858   -0.0925 O   0  0  0  0  0
   -1.8561   10.9595   -0.0723 O   0  0  0  0  0
    0.5923    6.3032   -0.0473 C   0  0  0  0  0
    1.2070    7.6714   -0.0471 C   0  0  0  0  0
    2.7019    7.5488   -0.0286 C   0  0  0  0  0
    3.3430    6.1927   -0.0138 O   0  0  0  0  0
    3.5557    8.7821   -0.0249 O   0  0  0  0  0
    4.3135    3.0760    0.0230 C   0  0  0  0  0
    5.5806    3.8782    0.0501 C   0  0  0  0  0
    6.7597    2.9512    0.0715 C   0  0  0  0  0
    8.0269    3.7535    0.0987 C   0  0  0  0  0
    7.9658    5.2522    0.1009 O   0  0  0  0  0
    9.3551    3.0570    0.1236 O   0  0  0  0  0
    4.2498    1.7915    0.0188 C   0  0  0  0  0
    5.4316    0.8678    0.0332 C   0  0  0  0  0
    4.9555   -0.5546    0.0228 C   0  0  0  0  0
    3.4857   -0.8533    0.0011 O   0  0  0  0  0
    5.9491   -1.6782    0.0340 O   0  0  0  0  0
  1  2  1  0  0  0
  2  3  1  0  0  0
  3  4  1  0  0  0
  3 57  2  0  0  0
  4  5  1  0  0  0
  5 51  2  0  0  0
  5  6  1  0  0  0
  6  7  1  0  0  0
  7  8  1  0  0  0
  7 46  2  0  0  0
  8  9  1  0  0  0
  9 40  2  0  0  0
  9 10  1  0  0  0
 10 11  1  0  0  0
 11 12  1  0  0  0
 11 35  2  0  0  0
 12 13  1  0  0  0
 13 29  2  0  0  0
 13 14  1  0  0  0
 14 15  1  0  0  0
 15 16  1  0  0  0
 15 24  2  0  0  0
 16 17  1  0  0  0
 17 18  2  0  0  0
 18 24  1  0  0  0
 18 19  1  0  0  0
 19 20  1  0  0  0
 20 21  1  0  0  0
 21 23  1  0  0  0
 21 22  2  0  0  0
 24 25  1  0  0  0
 25 26  1  0  0  0
 26 28  1  0  0  0
 26 27  2  0  0  0
 29 35  1  0  0  0
 29 30  1  0  0  0
 30 31  1  0  0  0
 31 32  1  0  0  0
 32 34  1  0  0  0
 32 33  2  0  0  0
 35 36  1  0  0  0
 36 37  1  0  0  0
 37 39  1  0  0  0
 37 38  2  0  0  0
 40 46  1  0  0  0
 40 41  1  0  0  0
 41 42  1  0  0  0
 42 43  1  0  0  0
 43 45  1  0  0  0
 43 44  2  0  0  0
 46 47  1  0  0  0
 47 48  1  0  0  0
 48 50  1  0  0  0
 48 49  2  0  0  0
 51 57  1  0  0  0
 51 52  1  0  0  0
 52 53  1  0  0  0
 53 54  1  0  0  0
 54 56  1  0  0  0
 54 55  2  0  0  0
 57 58  1  0  0  0
 58 59  1  0  0  0
 59 61  1  0  0  0
 59 60  2  0  0  0
M  END
> <SMILES>
OCC=4NC(CC=3NC(CC=2NC(CC=1NC=C(CCC(=O)O)C=1(CC(=O)O))=C(CCC(=O)O)C=2(CC(=O)O))=C(CCC(=O)O)C=3(CC(=O)O))=C(CCC(=O)O)C=4(CC(=O)O)

> <NAME>
HYDROXYMETHYLBILANE

> <BioCyc_link>
http://biocyc.org/HUMAN/NEW-IMAGE?object=HYDROXYMETHYLBILANE

> <BioCyc_name_HTML>
hydroxymethylbilane

> <CAS>
73023-76-4

> <KEGG_ID>
C01024

> <toxTree.tree.cramer.CramerTreeResult>


> <FORMULA>


> <toxTree.tree.cramer.CramerRules>


$$$$
HYPOXANTHINE
 OpenBabel30120812303D

 10 11  0  0  0  0  0  0  0  0999 V2000
    1.0000    0.0000    0.0000 O   0  0  0  0  0
    2.5000    0.0000    0.0000 C   0  0  0  0  0
    3.2198   -1.1815    0.0025 N   0  0  0  0  0
    4.6102   -1.1577   -0.0102 C   0  0  0  0  0
    5.3097   -0.0535   -0.0126 N   0  0  0  0  0
    4.7290    1.1586   -0.0088 C   0  0  0  0  0
    5.1956    2.4585   -0.0100 N   0  0  0  0  0
    4.1342    3.2806   -0.0049 C   0  0  0  0  0
    2.9518    2.5299   -0.0002 N   0  0  0  0  0
    3.2611    1.2494   -0.0027 C   0  0  0  0  0
  1  2  2  0  0  0
  2  3  1  0  0  0
  2 10  1  0  0  0
  3  4  1  0  0  0
  4  5  2  0  0  0
  5  6  1  0  0  0
  6  7  1  0  0  0
  6 10  2  0  0  0
  7  8  2  0  0  0
  8  9  1  0  0  0
  9 10  1  0  0  0
M  END
> <SMILES>
O=C1NC=NC=2N=CNC1=2

> <NAME>
HYPOXANTHINE

> <BioCyc_link>
http://biocyc.org/HUMAN/NEW-IMAGE?object=HYPOXANTHINE

> <BioCyc_name_HTML>
hypoxanthine

> <CAS>
68-94-0

> <KEGG_ID>
C00262

> <toxTree.tree.cramer.CramerTreeResult>


> <FORMULA>


> <toxTree.tree.cramer.CramerRules>


$$$$
N-ACETYL-SEROTONIN
 OpenBabel30120812303D

 16 17  0  0  0  0  0  0  0  0999 V2000
    1.0000    0.0000    0.0000 C   0  0  0  0  0
    2.5000    0.0000    0.0000 C   0  0  0  0  0
    3.2500   -1.2990    0.0000 O   0  0  0  0  0
    3.2500    1.2990    0.0000 N   0  0  0  0  0
    4.7500    1.2990    0.0000 C   0  0  0  0  0
    5.2507    2.7130    0.0000 C   0  0  0  0  0
    6.7507    2.7130    0.0000 C   0  0  0  0  0
    7.5397    2.7108   -1.0863 C   0  0  0  0  0
    8.8850    2.7116   -0.6963 N   0  0  0  0  0
    8.9462    2.7146    0.6196 C   0  0  0  0  0
   10.0264    2.7165    1.6062 C   0  0  0  0  0
    9.6659    2.7127    2.9419 C   0  0  0  0  0
    8.3243    2.7201    3.3081 C   0  0  0  0  0
    7.9852    2.7306    4.7692 O   0  0  0  0  0
    7.3438    2.7184    2.4435 C   0  0  0  0  0
    7.5623    2.7152    1.1174 C   0  0  0  0  0
  1  2  1  0  0  0
  2  4  1  0  0  0
  2  3  2  0  0  0
  4  5  1  0  0  0
  5  6  1  0  0  0
  6  7  1  0  0  0
  7 16  1  0  0  0
  7  8  2  0  0  0
  8  9  1  0  0  0
  9 10  1  0  0  0
 10 16  2  0  0  0
 10 11  1  0  0  0
 11 12  2  0  0  0
 12 13  1  0  0  0
 13 15  2  0  0  0
 13 14  1  0  0  0
 15 16  1  0  0  0
M  END
> <SMILES>
CC(=O)NCCC1=CNC=2C=CC(O)=CC1=2

> <NAME>
N-ACETYL-SEROTONIN

> <BioCyc_link>
http://biocyc.org/HUMAN/NEW-IMAGE?object=N-ACETYL-SEROTONIN

> <BioCyc_name_HTML>
<i>N</i>-acetyl-serotonin

> <CAS>
1210-83-9

> <KEGG_ID>
C00978

> <toxTree.tree.cramer.CramerTreeResult>


> <FORMULA>


> <toxTree.tree.cramer.CramerRules>


$$$$
NIACINAMIDE
 OpenBabel30120812303D

  9  9  0  0  0  0  0  0  0  0999 V2000
    1.0000    0.0000    0.0000 N   0  0  0  0  0
    2.5000    0.0000    0.0000 C   0  0  0  0  0
    3.2500   -1.2990    0.0000 O   0  0  0  0  0
    3.2500    1.2990    0.0000 C   0  0  0  0  0
    4.6289    1.2972    0.0150 C   0  0  0  0  0
    5.3263    2.5068    0.0271 C   0  0  0  0  0
    4.6209    3.7112    0.0179 C   0  0  0  0  0
    3.2421    3.6990   -0.0031 N   0  0  0  0  0
    2.5567    2.4965   -0.0151 C   0  0  0  0  0
  1  2  1  0  0  0
  2  4  1  0  0  0
  2  3  2  0  0  0
  4  9  2  0  0  0
  4  5  1  0  0  0
  5  6  2  0  0  0
  6  7  1  0  0  0
  7  8  2  0  0  0
  8  9  1  0  0  0
M  END
> <SMILES>
NC(=O)C=1C=CC=NC=1

> <NAME>
NIACINAMIDE

> <BioCyc_link>
http://biocyc.org/HUMAN/NEW-IMAGE?object=NIACINAMIDE

> <BioCyc_name_HTML>
nicotinamide

> <CAS>
98-92-0

> <KEGG_ID>
C00153

> <toxTree.tree.cramer.CramerTreeResult>


> <FORMULA>


> <toxTree.tree.cramer.CramerRules>


$$$$
DIHYDROFOLATE
 OpenBabel30120812303D

 33 35  0  0  0  0  0  0  0  0999 V2000
    1.0000    0.0000    0.0000 H   0  0  0  0  0
    2.5000    0.0000    0.0000 C   0  0  0  0  0
    2.9931   -0.6977    1.2329 C   0  0  0  0  0
    2.4869    0.0185    2.4498 C   0  0  0  0  0
    2.9800   -0.6792    3.6827 C   0  0  0  0  0
    3.8428   -1.9000    3.5593 O   0  0  0  0  0
    2.6103   -0.1561    5.0391 O   0  0  0  0  0
    3.0193   -0.7348   -1.2002 N   0  0  0  0  0
    2.6508   -2.1726   -1.4167 C   0  0  0  0  0
    1.7630   -2.8756   -0.4330 O   0  0  0  0  0
    3.1701   -2.9074   -2.6168 C   0  0  0  0  0
    2.9289   -4.2637   -2.6817 C   0  0  0  0  0
    3.2603   -4.9749   -3.8367 C   0  0  0  0  0
    3.8289   -4.3050   -4.9213 C   0  0  0  0  0
    4.0593   -2.9475   -4.8456 C   0  0  0  0  0
    3.7285   -2.2483   -3.6977 C   0  0  0  0  0
    4.1884   -5.0602   -6.1665 N   0  0  0  0  0
    4.7993   -4.3388   -7.3311 C   0  0  0  0  0
    5.0620   -5.3125   -8.4414 C   0  0  0  0  0
    4.8269   -6.6606   -8.1693 C   0  0  0  0  0
    4.8914   -7.6017   -9.1347 N   0  0  0  0  0
    5.2185   -7.1858  -10.5043 C   0  0  0  0  0
    5.3044   -8.0998  -11.5537 N   0  0  0  0  0
    5.6161   -7.6504  -12.8180 C   0  0  0  0  0
    5.7046   -8.6283  -13.9519 N   0  0  0  0  0
    5.8494   -6.3016  -13.0543 N   0  0  0  0  0
    5.7647   -5.3875  -12.0420 C   0  0  0  0  0
    6.0069   -3.9331  -12.3177 O   0  0  0  0  0
    5.4515   -5.8139  -10.7497 C   0  0  0  0  0
    5.3558   -4.8771   -9.6301 N   0  0  0  0  0
    3.0007    1.4140    0.0000 C   0  0  0  0  0
    2.0265    2.5546    0.0000 O   0  0  0  0  0
    4.4756    1.6873    0.0000 O   0  0  0  0  0
  1  2  1  0  0  0
  2 31  1  0  0  0
  2  8  1  0  0  0
  2  3  1  0  0  0
  3  4  1  0  0  0
  4  5  1  0  0  0
  5  7  1  0  0  0
  5  6  2  0  0  0
  8  9  1  0  0  0
  9 11  1  0  0  0
  9 10  2  0  0  0
 11 16  1  0  0  0
 11 12  2  0  0  0
 12 13  1  0  0  0
 13 14  2  0  0  0
 14 15  1  0  0  0
 14 17  1  0  0  0
 15 16  2  0  0  0
 17 18  1  0  0  0
 18 19  1  0  0  0
 19 20  1  0  0  0
 19 30  2  0  0  0
 20 21  1  0  0  0
 21 22  1  0  0  0
 22 23  1  0  0  0
 22 29  2  0  0  0
 23 24  2  0  0  0
 24 26  1  0  0  0
 24 25  1  0  0  0
 26 27  1  0  0  0
 27 29  1  0  0  0
 27 28  2  0  0  0
 29 30  1  0  0  0
 31 33  1  0  0  0
 31 32  2  0  0  0
M  END
> <SMILES>
[H]C(CCC(=O)O)(NC(=O)C1=CC=C(C=C1)NCC=2CNC=3N=C(N)NC(=O)C=3(N=2))C(=O)O

> <NAME>
DIHYDROFOLATE

> <BioCyc_link>
http://biocyc.org/HUMAN/NEW-IMAGE?object=DIHYDROFOLATE

> <BioCyc_name_HTML>
7,8-dihydrofolate

> <CAS>
4033-27-6

> <KEGG_ID>
C00415

> <toxTree.tree.cramer.CramerTreeResult>


> <FORMULA>


> <toxTree.tree.cramer.CramerRules>


$$$$
CPD-8892
 OpenBabel30120812303D

 25 24  0  0  0  0  0  0  0  0999 V2000
    1.0000    0.0000    0.0000 H   0  0  0  0  0
    2.5000    0.0000    0.0000 C   0  0  0  0  0
    3.0193   -0.7348   -1.2002 C   0  0  0  0  0
    2.6508   -2.1726   -1.4167 C   0  0  0  0  0
    3.1701   -2.9074   -2.6168 C   0  0  0  0  0
    2.8016   -4.3452   -2.8333 C   0  0  0  0  0
    3.3209   -5.0801   -4.0335 C   0  0  0  0  0
    2.9524   -6.5179   -4.2500 C   0  0  0  0  0
    3.4717   -7.2527   -5.4502 C   0  0  0  0  0
    2.9613   -8.6631   -5.4333 C   0  0  0  0  0
    3.3397   -9.6108   -6.5327 C   0  0  0  0  0
    2.8293  -11.0212   -6.5158 C   0  0  0  0  0
    3.3486  -11.7560   -7.7159 C   0  0  0  0  0
    2.8382  -13.1664   -7.6991 C   0  0  0  0  0
    3.3575  -13.9012   -8.8992 C   0  0  0  0  0
    2.8471  -15.3116   -8.8823 C   0  0  0  0  0
    3.0007    1.4140    0.0000 O   0  0  0  0  0
    2.9931   -0.6977    1.2329 C   0  0  0  0  0
    4.4925   -0.7398    1.2412 H   0  0  0  0  0
    2.4869    0.0185    2.4498 C   0  0  0  0  0
    2.9800   -0.6792    3.6827 C   0  0  0  0  0
    2.4738    0.0370    4.8996 C   0  0  0  0  0
    2.9669   -0.6607    6.1326 C   0  0  0  0  0
    3.8297   -1.8815    6.0091 O   0  0  0  0  0
    2.5972   -0.1376    7.4889 O   0  0  0  0  0
  1  2  1  0  0  0
  2 17  1  0  0  0
  2  3  1  0  0  0
  2 18  1  0  0  0
  3  4  2  0  0  0
  4  5  1  0  0  0
  5  6  2  0  0  0
  6  7  1  0  0  0
  7  8  2  0  0  0
  8  9  1  0  0  0
  9 10  1  0  0  0
 10 11  2  0  0  0
 11 12  1  0  0  0
 12 13  1  0  0  0
 13 14  1  0  0  0
 14 15  1  0  0  0
 15 16  1  0  0  0
 18 20  1  0  0  0
 18 19  1  0  0  0
 20 21  1  0  0  0
 21 22  1  0  0  0
 22 23  1  0  0  0
 23 25  1  0  0  0
 23 24  2  0  0  0
M  END
> <SMILES>
[H]C1(C=CC=CC=CCC=CCCCCC)(OC1([H])(CCCC(=O)O))

> <NAME>
CPD-8892

> <BioCyc_link>
http://biocyc.org/HUMAN/NEW-IMAGE?object=CPD-8892

> <BioCyc_name_HTML>
leukotriene-A4

> <CAS>
72059-45-1

> <KEGG_ID>
C00909

> <toxTree.tree.cramer.CramerTreeResult>


> <FORMULA>


> <toxTree.tree.cramer.CramerRules>


$$$$
EPOXYSQUALENE
 OpenBabel30120812303D

 32 31  0  0  0  0  0  0  0  0999 V2000
    1.0000    0.0000    0.0000 H   0  0  0  0  0
    2.5000    0.0000    0.0000 C   0  0  0  0  0
    3.0193   -0.7348   -1.2002 C   0  0  0  0  0
    2.5089   -2.1452   -1.1833 C   0  0  0  0  0
    3.0282   -2.8800   -2.3834 C   0  0  0  0  0
    3.9161   -2.1770   -3.3671 C   0  0  0  0  0
    2.6597   -4.3178   -2.6000 C   0  0  0  0  0
    3.1790   -5.0526   -3.8001 C   0  0  0  0  0
    2.6686   -6.4630   -3.7832 C   0  0  0  0  0
    3.1879   -7.1978   -4.9834 C   0  0  0  0  0
    4.0758   -6.4948   -5.9670 C   0  0  0  0  0
    2.8194   -8.6357   -5.1999 C   0  0  0  0  0
    3.3387   -9.3705   -6.4001 C   0  0  0  0  0
    2.8283  -10.7809   -6.3832 C   0  0  0  0  0
    3.3476  -11.5157   -7.5834 C   0  0  0  0  0
    2.9791  -12.9535   -7.7999 C   0  0  0  0  0
    2.0913  -13.6565   -6.8162 C   0  0  0  0  0
    3.4984  -13.6883   -9.0000 C   0  0  0  0  0
    2.9880  -15.0987   -8.9832 C   0  0  0  0  0
    3.5073  -15.8335  -10.1833 C   0  0  0  0  0
    3.1388  -17.2713  -10.3998 C   0  0  0  0  0
    2.2510  -17.9743   -9.4162 C   0  0  0  0  0
    3.6581  -18.0061  -11.6000 C   0  0  0  0  0
    3.1477  -19.4165  -11.5831 C   0  0  0  0  0
    3.6670  -20.1513  -12.7833 C   0  0  0  0  0
    3.2985  -21.5891  -12.9998 C   0  0  0  0  0
    2.4107  -22.2921  -12.0162 C   0  0  0  0  0
    3.8178  -22.3239  -14.1999 C   0  0  0  0  0
    3.0007    1.4140    0.0000 O   0  0  0  0  0
    2.9931   -0.6977    1.2329 C   0  0  0  0  0
    4.4925   -0.7398    1.2412 C   0  0  0  0  0
    2.4869    0.0185    2.4498 C   0  0  0  0  0
  1  2  1  0  0  0
  2 29  1  0  0  0
  2  3  1  0  0  0
  2 30  1  0  0  0
  3  4  1  0  0  0
  4  5  1  0  0  0
  5  7  2  0  0  0
  5  6  1  0  0  0
  7  8  1  0  0  0
  8  9  1  0  0  0
  9 10  1  0  0  0
 10 12  2  0  0  0
 10 11  1  0  0  0
 12 13  1  0  0  0
 13 14  1  0  0  0
 14 15  1  0  0  0
 15 16  2  0  0  0
 16 18  1  0  0  0
 16 17  1  0  0  0
 18 19  1  0  0  0
 19 20  1  0  0  0
 20 21  2  0  0  0
 21 23  1  0  0  0
 21 22  1  0  0  0
 23 24  1  0  0  0
 24 25  1  0  0  0
 25 26  2  0  0  0
 26 28  1  0  0  0
 26 27  1  0  0  0
 30 32  1  0  0  0
 30 31  1  0  0  0
M  END
> <SMILES>
[H]C1(CCC(C)=CCCC(C)=CCCC=C(C)CCC=C(C)CCC=C(C)C)(OC1(C)(C))

> <NAME>
EPOXYSQUALENE

> <BioCyc_link>
http://biocyc.org/HUMAN/NEW-IMAGE?object=EPOXYSQUALENE

> <BioCyc_name_HTML>
(S)-2,3-epoxysqualene

> <CAS>
9029-62-3

> <KEGG_ID>
C01054

> <toxTree.tree.cramer.CramerTreeResult>


> <FORMULA>


> <toxTree.tree.cramer.CramerRules>


$$$$
Pi
 OpenBabel30120812303D

  5  4  0  0  0  0  0  0  0  0999 V2000
    1.0000    0.0000    0.0000 O   0  0  0  0  0
    2.5000    0.0000    0.0000 P   0  0  0  0  0
    2.9931   -0.6977    1.2329 O   0  0  0  0  0
    3.0193   -0.7348   -1.2002 O   0  0  0  0  0
    3.0007    1.4140    0.0000 O   0  0  0  0  0
  1  2  1  0  0  0
  2  5  1  0  0  0
  2  4  1  0  0  0
  2  3  2  0  0  0
M  END
> <SMILES>
OP(=O)(O)O

> <NAME>
Pi

> <BioCyc_link>
http://biocyc.org/HUMAN/NEW-IMAGE?object=Pi

> <BioCyc_name_HTML>
phosphate

> <CAS>
14265-44-2

> <KEGG_ID>
C00009

> <toxTree.tree.cramer.CramerTreeResult>


> <FORMULA>


> <toxTree.tree.cramer.CramerRules>


$$$$
PHOSPHORYL-ETHANOLAMINE
 OpenBabel30120812303D

  8  7  0  0  0  0  0  0  0  0999 V2000
    1.0000    0.0000    0.0000 N   0  0  0  0  0
    2.5000    0.0000    0.0000 C   0  0  0  0  0
    3.0007    1.4140    0.0000 C   0  0  0  0  0
    4.5007    1.4140    0.0000 O   0  0  0  0  0
    5.0014    2.8279    0.0000 P   0  0  0  0  0
    4.5083    3.5256   -1.2329 O   0  0  0  0  0
    4.4821    3.5627    1.2002 O   0  0  0  0  0
    6.5014    2.8279    0.0000 O   0  0  0  0  0
  1  2  1  0  0  0
  2  3  1  0  0  0
  3  4  1  0  0  0
  4  5  1  0  0  0
  5  8  1  0  0  0
  5  7  1  0  0  0
  5  6  2  0  0  0
M  END
> <SMILES>
NCCOP(=O)(O)O

> <NAME>
PHOSPHORYL-ETHANOLAMINE

> <BioCyc_link>
http://biocyc.org/HUMAN/NEW-IMAGE?object=PHOSPHORYL-ETHANOLAMINE

> <BioCyc_name_HTML>
phosphoryl-ethanolamine

> <CAS>
1071-23-4

> <KEGG_ID>
C00346

> <toxTree.tree.cramer.CramerTreeResult>


> <FORMULA>


> <toxTree.tree.cramer.CramerRules>


$$$$
PAPS
 OpenBabel30120812303D

 35 37  0  0  0  0  0  0  0  0999 V2000
    1.0000    0.0000    0.0000 H   0  0  0  0  0
    2.5000    0.0000    0.0000 C   0  0  0  0  0
    2.9034    0.1217   -1.4396 C   0  0  0  0  0
    4.3999    0.1302   -1.5413 O   0  0  0  0  0
    4.8033    0.2519   -2.9809 P   0  0  0  0  0
    4.2639   -0.9208   -3.7449 O   0  0  0  0  0
    4.2352    1.5066   -3.5751 O   0  0  0  0  0
    6.2998    0.2605   -3.0825 O   0  0  0  0  0
    6.7032    0.3821   -4.5222 S   0  0  0  0  0
    6.1638   -0.7906   -5.2862 O   0  0  0  0  0
    6.1351    1.6368   -5.1164 O   0  0  0  0  0
    8.1997    0.3907   -4.6238 O   0  0  0  0  0
    3.0599    1.1537    0.8679 O   0  0  0  0  0
    4.4904    0.6582    1.2094 C   0  0  0  0  0
    5.0630    1.3496    2.4111 H   0  0  0  0  0
    5.4454    0.9430    0.0883 N   0  0  0  0  0
    6.1375    0.0329   -0.6155 C   0  0  0  0  0
    6.9010    0.6737   -1.5995 N   0  0  0  0  0
    6.6943    1.9723   -1.5194 C   0  0  0  0  0
    7.1824    3.1454   -2.2447 C   0  0  0  0  0
    8.1503    3.0122   -3.3829 N   0  0  0  0  0
    6.7152    4.3825   -1.8381 N   0  0  0  0  0
    5.8084    4.4812   -0.7884 C   0  0  0  0  0
    5.3597    3.4468   -0.1271 N   0  0  0  0  0
    5.7422    2.1921   -0.4204 C   0  0  0  0  0
    4.3235   -0.8601    1.4286 C   0  0  0  0  0
    4.1957   -1.1812    2.8882 H   0  0  0  0  0
    5.5233   -1.6057    0.9241 O   0  0  0  0  0
    3.0578   -1.2782    0.6595 C   0  0  0  0  0
    2.0467   -1.8906    1.5829 H   0  0  0  0  0
    3.3824   -2.3132   -0.3765 O   0  0  0  0  0
    2.1309   -2.6995   -1.1076 P   0  0  0  0  0
    1.1459   -3.2710   -0.1313 O   0  0  0  0  0
    1.5136   -1.4944   -1.7531 O   0  0  0  0  0
    2.4555   -3.7345   -2.1437 O   0  0  0  0  0
  1  2  1  0  0  0
  2 29  1  0  0  0
  2 13  1  0  0  0
  2  3  1  0  0  0
  3  4  1  0  0  0
  4  5  1  0  0  0
  5  8  1  0  0  0
  5  7  1  0  0  0
  5  6  2  0  0  0
  8  9  1  0  0  0
  9 12  1  0  0  0
  9 11  2  0  0  0
  9 10  2  0  0  0
 13 14  1  0  0  0
 14 26  1  0  0  0
 14 16  1  0  0  0
 14 15  1  0  0  0
 16 25  1  0  0  0
 16 17  1  0  0  0
 17 18  2  0  0  0
 18 19  1  0  0  0
 19 25  2  0  0  0
 19 20  1  0  0  0
 20 22  2  0  0  0
 20 21  1  0  0  0
 22 23  1  0  0  0
 23 24  2  0  0  0
 24 25  1  0  0  0
 26 29  1  0  0  0
 26 28  1  0  0  0
 26 27  1  0  0  0
 29 31  1  0  0  0
 29 30  1  0  0  0
 31 32  1  0  0  0
 32 35  1  0  0  0
 32 34  1  0  0  0
 32 33  2  0  0  0
M  END
> <SMILES>
[H]C3(COP(=O)(O)OS(=O)(=O)O)(OC([H])(N2C=NC=1C(N)=NC=NC=12)C([H])(O)C3([H])(OP(=O)(O)O))

> <NAME>
PAPS

> <BioCyc_link>
http://biocyc.org/HUMAN/NEW-IMAGE?object=PAPS

> <BioCyc_name_HTML>
phosphoadenosine-5'-phosphosulfate

> <CAS>
482-67-7

> <KEGG_ID>
C00053

> <toxTree.tree.cramer.CramerTreeResult>


> <FORMULA>


> <toxTree.tree.cramer.CramerRules>


$$$$
PPI
 OpenBabel30120812303D

  9  8  0  0  0  0  0  0  0  0999 V2000
    1.0000    0.0000    0.0000 O   0  0  0  0  0
    2.5000    0.0000    0.0000 P   0  0  0  0  0
    2.9931   -0.6977    1.2329 O   0  0  0  0  0
    3.0193   -0.7348   -1.2002 O   0  0  0  0  0
    3.0007    1.4140    0.0000 O   0  0  0  0  0
    4.5007    1.4140    0.0000 P   0  0  0  0  0
    4.9938    0.7163    1.2329 O   0  0  0  0  0
    5.0200    0.6792   -1.2002 O   0  0  0  0  0
    5.0014    2.8279    0.0000 O   0  0  0  0  0
  1  2  1  0  0  0
  2  5  1  0  0  0
  2  4  1  0  0  0
  2  3  2  0  0  0
  5  6  1  0  0  0
  6  9  1  0  0  0
  6  8  1  0  0  0
  6  7  2  0  0  0
M  END
> <SMILES>
OP(=O)(O)OP(=O)(O)O

> <NAME>
PPI

> <BioCyc_link>
http://biocyc.org/HUMAN/NEW-IMAGE?object=PPI

> <BioCyc_name_HTML>
diphosphate

> <CAS>
2466-09-3

> <KEGG_ID>
C00013

> <toxTree.tree.cramer.CramerTreeResult>


> <FORMULA>


> <toxTree.tree.cramer.CramerRules>


$$$$
APS
 OpenBabel30120812303D

 31 33  0  0  0  0  0  0  0  0999 V2000
    1.0000    0.0000    0.0000 H   0  0  0  0  0
    2.5000    0.0000    0.0000 C   0  0  0  0  0
    2.9034    0.1217   -1.4396 C   0  0  0  0  0
    4.3999    0.1302   -1.5413 O   0  0  0  0  0
    4.8033    0.2519   -2.9809 P   0  0  0  0  0
    4.2639   -0.9208   -3.7449 O   0  0  0  0  0
    4.2352    1.5066   -3.5751 O   0  0  0  0  0
    6.2998    0.2605   -3.0825 O   0  0  0  0  0
    6.7032    0.3821   -4.5222 S   0  0  0  0  0
    6.1638   -0.7906   -5.2862 O   0  0  0  0  0
    6.1351    1.6368   -5.1164 O   0  0  0  0  0
    8.1997    0.3907   -4.6238 O   0  0  0  0  0
    3.0599    1.1537    0.8679 O   0  0  0  0  0
    4.4904    0.6582    1.2094 C   0  0  0  0  0
    5.0630    1.3496    2.4111 H   0  0  0  0  0
    5.4454    0.9430    0.0883 N   0  0  0  0  0
    6.1375    0.0329   -0.6155 C   0  0  0  0  0
    6.9010    0.6737   -1.5995 N   0  0  0  0  0
    6.6943    1.9723   -1.5194 C   0  0  0  0  0
    7.1824    3.1454   -2.2447 C   0  0  0  0  0
    8.1503    3.0122   -3.3829 N   0  0  0  0  0
    6.7152    4.3825   -1.8381 N   0  0  0  0  0
    5.8084    4.4812   -0.7884 C   0  0  0  0  0
    5.3597    3.4468   -0.1271 N   0  0  0  0  0
    5.7422    2.1921   -0.4204 C   0  0  0  0  0
    4.3235   -0.8601    1.4286 C   0  0  0  0  0
    4.1957   -1.1812    2.8882 H   0  0  0  0  0
    5.5233   -1.6057    0.9241 O   0  0  0  0  0
    3.0578   -1.2782    0.6595 C   0  0  0  0  0
    2.0467   -1.8906    1.5829 H   0  0  0  0  0
    3.3824   -2.3132   -0.3765 O   0  0  0  0  0
  1  2  1  0  0  0
  2 29  1  0  0  0
  2 13  1  0  0  0
  2  3  1  0  0  0
  3  4  1  0  0  0
  4  5  1  0  0  0
  5  8  1  0  0  0
  5  7  1  0  0  0
  5  6  2  0  0  0
  8  9  1  0  0  0
  9 12  1  0  0  0
  9 11  2  0  0  0
  9 10  2  0  0  0
 13 14  1  0  0  0
 14 26  1  0  0  0
 14 16  1  0  0  0
 14 15  1  0  0  0
 16 25  1  0  0  0
 16 17  1  0  0  0
 17 18  2  0  0  0
 18 19  1  0  0  0
 19 25  2  0  0  0
 19 20  1  0  0  0
 20 22  2  0  0  0
 20 21  1  0  0  0
 22 23  1  0  0  0
 23 24  2  0  0  0
 24 25  1  0  0  0
 26 29  1  0  0  0
 26 28  1  0  0  0
 26 27  1  0  0  0
 29 31  1  0  0  0
 29 30  1  0  0  0
M  END
> <SMILES>
[H]C3(COP(=O)(O)OS(=O)(=O)O)(OC([H])(N2C=NC=1C(N)=NC=NC=12)C([H])(O)C3([H])(O))

> <NAME>
APS

> <BioCyc_link>
http://biocyc.org/HUMAN/NEW-IMAGE?object=APS

> <BioCyc_name_HTML>
adenosine

> <CAS>
485-84-7

> <KEGG_ID>
C00224

> <toxTree.tree.cramer.CramerTreeResult>


> <FORMULA>


> <toxTree.tree.cramer.CramerRules>


$$$$
3-P-HYDROXYPYRUVATE
 OpenBabel30120812303D

 11 10  0  0  0  0  0  0  0  0999 V2000
    1.0000    0.0000    0.0000 O   0  0  0  0  0
    2.5000    0.0000    0.0000 C   0  0  0  0  0
    3.2500   -1.2990    0.0000 O   0  0  0  0  0
    3.2500    1.2990    0.0000 C   0  0  0  0  0
    2.5000    2.5981    0.0000 O   0  0  0  0  0
    4.7500    1.2990    0.0000 C   0  0  0  0  0
    5.2507    2.7130    0.0000 O   0  0  0  0  0
    6.7507    2.7130    0.0000 P   0  0  0  0  0
    7.2438    2.0153    1.2329 O   0  0  0  0  0
    7.2700    1.9782   -1.2002 O   0  0  0  0  0
    7.2514    4.1270    0.0000 O   0  0  0  0  0
  1  2  2  0  0  0
  2  4  1  0  0  0
  2  3  1  0  0  0
  4  6  1  0  0  0
  4  5  2  0  0  0
  6  7  1  0  0  0
  7  8  1  0  0  0
  8 11  1  0  0  0
  8 10  1  0  0  0
  8  9  2  0  0  0
M  END
> <SMILES>
O=C(O)C(=O)COP(=O)(O)O

> <NAME>
3-P-HYDROXYPYRUVATE

> <BioCyc_link>
http://biocyc.org/HUMAN/NEW-IMAGE?object=3-P-HYDROXYPYRUVATE

> <BioCyc_name_HTML>
3-phospho-hydroxypyruvate

> <CAS>
3913-50-6

> <KEGG_ID>
C03232

> <toxTree.tree.cramer.CramerTreeResult>


> <FORMULA>


> <toxTree.tree.cramer.CramerRules>


$$$$
CPD-535
 OpenBabel30120812303D

 23 23  0  0  0  0  0  0  0  0999 V2000
    1.0000    0.0000    0.0000 H   0  0  0  0  0
    2.5000    0.0000    0.0000 C   0  0  0  0  0
    2.9034    0.1217   -1.4396 O   0  0  0  0  0
    3.0599    1.1537    0.8679 C   0  0  0  0  0
    3.0416    2.4828    0.1728 H   0  0  0  0  0
    2.2387    1.3587    2.1063 O   0  0  0  0  0
    4.4904    0.6582    1.2094 C   0  0  0  0  0
    5.0630    1.3496    2.4111 C   0  0  0  0  0
    4.1694    1.1203    3.5938 O   0  0  0  0  0
    4.3235   -0.8601    1.4286 O   0  0  0  0  0
    3.0578   -1.2782    0.6595 C   0  0  0  0  0
    2.0467   -1.8906    1.5829 H   0  0  0  0  0
    3.3824   -2.3132   -0.3765 C   0  0  0  0  0
    2.1309   -2.6995   -1.1076 O   0  0  0  0  0
    2.4555   -3.7345   -2.1437 P   0  0  0  0  0
    3.4404   -3.1630   -3.1200 O   0  0  0  0  0
    3.0728   -4.9396   -1.4982 O   0  0  0  0  0
    1.2040   -4.1208   -2.8748 O   0  0  0  0  0
    5.4454    0.9430    0.0883 O   0  0  0  0  0
    6.8129    0.4496    0.4579 P   0  0  0  0  0
    7.2767    1.1621    1.6937 O   0  0  0  0  0
    6.7738   -1.0220    0.7457 O   0  0  0  0  0
    7.7679    0.7344   -0.6632 O   0  0  0  0  0
  1  2  1  0  0  0
  2 11  1  0  0  0
  2  4  1  0  0  0
  2  3  1  0  0  0
  4  7  1  0  0  0
  4  6  1  0  0  0
  4  5  1  0  0  0
  7 10  1  0  0  0
  7 19  1  0  0  0
  7  8  1  0  0  0
  8  9  1  0  0  0
 10 11  1  0  0  0
 11 13  1  0  0  0
 11 12  1  0  0  0
 13 14  1  0  0  0
 14 15  1  0  0  0
 15 18  1  0  0  0
 15 17  1  0  0  0
 15 16  2  0  0  0
 19 20  1  0  0  0
 20 23  1  0  0  0
 20 22  1  0  0  0
 20 21  2  0  0  0
M  END
> <SMILES>
[H]C1(O)(C([H])(O)C(CO)(OC1([H])(COP(=O)(O)O))OP(=O)(O)O)

> <NAME>
CPD-535

> <BioCyc_link>
http://biocyc.org/HUMAN/NEW-IMAGE?object=CPD-535

> <BioCyc_name_HTML>
&beta;-D-fructose

> <CAS>


> <KEGG_ID>
C00665

> <toxTree.tree.cramer.CramerTreeResult>


> <FORMULA>


> <toxTree.tree.cramer.CramerRules>


$$$$
PYRIDOXAL_PHOSPHATE
 OpenBabel30120812303D

 16 16  0  0  0  0  0  0  0  0999 V2000
    1.0000    0.0000    0.0000 C   0  0  0  0  0
    2.5000    0.0000    0.0000 C   0  0  0  0  0
    3.1879   -1.1952   -0.0000 N   0  0  0  0  0
    4.5842   -1.1944    0.0121 C   0  0  0  0  0
    5.2744    0.0187    0.0181 C   0  0  0  0  0
    6.7743    0.0301    0.0312 C   0  0  0  0  0
    7.2643    1.4478    0.0354 O   0  0  0  0  0
    8.7642    1.4591    0.0485 P   0  0  0  0  0
    9.2518    0.7652    1.2857 O   0  0  0  0  0
    9.2995    0.7283   -1.1471 O   0  0  0  0  0
    9.2542    2.8768    0.0528 O   0  0  0  0  0
    4.5744    1.2069    0.0121 C   0  0  0  0  0
    5.3151    2.5113    0.0185 C   0  0  0  0  0
    4.5559    3.8049    0.0119 O   0  0  0  0  0
    3.1903    1.1993    0.0000 C   0  0  0  0  0
    2.4359    2.4957   -0.0131 O   0  0  0  0  0
  1  2  1  0  0  0
  2 15  1  0  0  0
  2  3  2  0  0  0
  3  4  1  0  0  0
  4  5  2  0  0  0
  5 12  1  0  0  0
  5  6  1  0  0  0
  6  7  1  0  0  0
  7  8  1  0  0  0
  8 11  1  0  0  0
  8 10  1  0  0  0
  8  9  2  0  0  0
 12 15  2  0  0  0
 12 13  1  0  0  0
 13 14  2  0  0  0
 15 16  1  0  0  0
M  END
> <SMILES>
CC1=NC=C(COP(=O)(O)O)C(C=O)=C1(O)

> <NAME>
PYRIDOXAL_PHOSPHATE

> <BioCyc_link>
http://biocyc.org/HUMAN/NEW-IMAGE?object=PYRIDOXAL_PHOSPHATE

> <BioCyc_name_HTML>
pyridoxal

> <CAS>
54-47-7

> <KEGG_ID>
C00018

> <toxTree.tree.cramer.CramerTreeResult>


> <FORMULA>


> <toxTree.tree.cramer.CramerRules>


$$$$
PYRIDOXAMINE-5P
 OpenBabel30120812303D

 16 16  0  0  0  0  0  0  0  0999 V2000
    1.0000    0.0000    0.0000 C   0  0  0  0  0
    2.5000    0.0000    0.0000 C   0  0  0  0  0
    3.1879   -1.1952   -0.0000 N   0  0  0  0  0
    4.5842   -1.1944    0.0121 C   0  0  0  0  0
    5.2744    0.0187    0.0181 C   0  0  0  0  0
    6.7743    0.0301    0.0312 C   0  0  0  0  0
    7.2643    1.4478    0.0354 O   0  0  0  0  0
    8.7642    1.4591    0.0485 P   0  0  0  0  0
    9.2518    0.7652    1.2857 O   0  0  0  0  0
    9.2995    0.7283   -1.1471 O   0  0  0  0  0
    9.2542    2.8768    0.0528 O   0  0  0  0  0
    4.5744    1.2069    0.0121 C   0  0  0  0  0
    5.3151    2.5113    0.0185 C   0  0  0  0  0
    4.3328    3.6449    0.0100 N   0  0  0  0  0
    3.1903    1.1993    0.0000 C   0  0  0  0  0
    2.4359    2.4957   -0.0131 O   0  0  0  0  0
  1  2  1  0  0  0
  2 15  1  0  0  0
  2  3  2  0  0  0
  3  4  1  0  0  0
  4  5  2  0  0  0
  5 12  1  0  0  0
  5  6  1  0  0  0
  6  7  1  0  0  0
  7  8  1  0  0  0
  8 11  1  0  0  0
  8 10  1  0  0  0
  8  9  2  0  0  0
 12 15  2  0  0  0
 12 13  1  0  0  0
 13 14  1  0  0  0
 15 16  1  0  0  0
M  END
> <SMILES>
CC1=NC=C(COP(=O)(O)O)C(CN)=C1(O)

> <NAME>
PYRIDOXAMINE-5P

> <BioCyc_link>
http://biocyc.org/HUMAN/NEW-IMAGE?object=PYRIDOXAMINE-5P

> <BioCyc_name_HTML>
pyridoxamine

> <CAS>
529-96-4

> <KEGG_ID>
C00647

> <toxTree.tree.cramer.CramerTreeResult>


> <FORMULA>


> <toxTree.tree.cramer.CramerRules>


$$$$
PYRIDOXINE-5P
 OpenBabel30120812303D

 16 16  0  0  0  0  0  0  0  0999 V2000
    1.0000    0.0000    0.0000 C   0  0  0  0  0
    2.5000    0.0000    0.0000 C   0  0  0  0  0
    3.1879   -1.1952   -0.0000 N   0  0  0  0  0
    4.5842   -1.1944    0.0121 C   0  0  0  0  0
    5.2744    0.0187    0.0181 C   0  0  0  0  0
    6.7743    0.0301    0.0312 C   0  0  0  0  0
    7.2643    1.4478    0.0354 O   0  0  0  0  0
    8.7642    1.4591    0.0485 P   0  0  0  0  0
    9.2518    0.7652    1.2857 O   0  0  0  0  0
    9.2995    0.7283   -1.1471 O   0  0  0  0  0
    9.2542    2.8768    0.0528 O   0  0  0  0  0
    4.5744    1.2069    0.0121 C   0  0  0  0  0
    5.3151    2.5113    0.0185 C   0  0  0  0  0
    4.3328    3.6449    0.0100 O   0  0  0  0  0
    3.1903    1.1993    0.0000 C   0  0  0  0  0
    2.4359    2.4957   -0.0131 O   0  0  0  0  0
  1  2  1  0  0  0
  2 15  1  0  0  0
  2  3  2  0  0  0
  3  4  1  0  0  0
  4  5  2  0  0  0
  5 12  1  0  0  0
  5  6  1  0  0  0
  6  7  1  0  0  0
  7  8  1  0  0  0
  8 11  1  0  0  0
  8 10  1  0  0  0
  8  9  2  0  0  0
 12 15  2  0  0  0
 12 13  1  0  0  0
 13 14  1  0  0  0
 15 16  1  0  0  0
M  END
> <SMILES>
CC1=NC=C(COP(=O)(O)O)C(CO)=C1(O)

> <NAME>
PYRIDOXINE-5P

> <BioCyc_link>
http://biocyc.org/HUMAN/NEW-IMAGE?object=PYRIDOXINE-5P

> <BioCyc_name_HTML>
pyridoxine-5'-phosphate

> <CAS>
447-05-2

> <KEGG_ID>
C00627

> <toxTree.tree.cramer.CramerTreeResult>


> <FORMULA>


> <toxTree.tree.cramer.CramerRules>


$$$$
MALONYL-COA
 OpenBabel30120812303D

 58 60  0  0  0  0  0  0  0  0999 V2000
    1.0000    0.0000    0.0000 H   0  0  0  0  0
    2.5000    0.0000    0.0000 C   0  0  0  0  0
    2.9034    0.1217   -1.4396 C   0  0  0  0  0
    4.3999    0.1302   -1.5413 O   0  0  0  0  0
    4.8033    0.2519   -2.9809 P   0  0  0  0  0
    4.2639   -0.9208   -3.7449 O   0  0  0  0  0
    4.2352    1.5066   -3.5751 O   0  0  0  0  0
    6.2998    0.2605   -3.0825 O   0  0  0  0  0
    6.7032    0.3821   -4.5222 P   0  0  0  0  0
    6.1638   -0.7906   -5.2862 O   0  0  0  0  0
    6.1351    1.6368   -5.1164 O   0  0  0  0  0
    8.1997    0.3907   -4.6238 O   0  0  0  0  0
    8.6031    0.5124   -6.0634 C   0  0  0  0  0
   10.0996    0.5210   -6.1651 C   0  0  0  0  0
   10.6390    1.6937   -5.4011 C   0  0  0  0  0
   10.6677   -0.7337   -5.5708 C   0  0  0  0  0
   10.5030    0.6426   -7.6047 C   0  0  0  0  0
    9.9349    1.8973   -8.1989 O   0  0  0  0  0
   11.9995    0.6512   -7.7064 C   0  0  0  0  0
   12.8362    0.5464   -6.4658 O   0  0  0  0  0
   12.6594    0.7647   -9.0486 N   0  0  0  0  0
   14.1560    0.7733   -9.1503 C   0  0  0  0  0
   14.5594    0.8949  -10.5899 C   0  0  0  0  0
   16.0559    0.9035  -10.6915 C   0  0  0  0  0
   16.8925    0.7987   -9.4509 O   0  0  0  0  0
   16.7158    1.0169  -12.0338 N   0  0  0  0  0
   18.2123    1.0255  -12.1355 C   0  0  0  0  0
   18.6157    1.1472  -13.5751 C   0  0  0  0  0
   20.1122    1.1558  -13.6767 S   0  0  0  0  0
   20.5156    1.2774  -15.1163 C   0  0  0  0  0
   19.4661    1.3677  -16.1842 O   0  0  0  0  0
   21.9685    1.3088  -15.4881 C   0  0  0  0  0
   22.1018    1.4346  -16.9768 C   0  0  0  0  0
   20.8746    1.5073  -17.8363 O   0  0  0  0  0
   23.4624    1.4878  -17.6061 O   0  0  0  0  0
    3.0599    1.1537    0.8679 O   0  0  0  0  0
    4.4904    0.6582    1.2094 C   0  0  0  0  0
    5.0630    1.3496    2.4111 H   0  0  0  0  0
    5.4454    0.9430    0.0883 N   0  0  0  0  0
    6.1375    0.0329   -0.6155 C   0  0  0  0  0
    6.9010    0.6737   -1.5995 N   0  0  0  0  0
    6.6943    1.9723   -1.5194 C   0  0  0  0  0
    7.1824    3.1454   -2.2447 C   0  0  0  0  0
    8.1503    3.0122   -3.3829 N   0  0  0  0  0
    6.7152    4.3825   -1.8381 N   0  0  0  0  0
    5.8084    4.4812   -0.7884 C   0  0  0  0  0
    5.3597    3.4468   -0.1271 N   0  0  0  0  0
    5.7422    2.1921   -0.4204 C   0  0  0  0  0
    4.3235   -0.8601    1.4286 C   0  0  0  0  0
    4.1957   -1.1812    2.8882 H   0  0  0  0  0
    5.5233   -1.6057    0.9241 O   0  0  0  0  0
    3.0578   -1.2782    0.6595 C   0  0  0  0  0
    2.0467   -1.8906    1.5829 H   0  0  0  0  0
    3.3824   -2.3132   -0.3765 O   0  0  0  0  0
    2.1309   -2.6995   -1.1076 P   0  0  0  0  0
    1.1459   -3.2710   -0.1313 O   0  0  0  0  0
    1.5136   -1.4944   -1.7531 O   0  0  0  0  0
    2.4555   -3.7345   -2.1437 O   0  0  0  0  0
  1  2  1  0  0  0
  2 52  1  0  0  0
  2 36  1  0  0  0
  2  3  1  0  0  0
  3  4  1  0  0  0
  4  5  1  0  0  0
  5  8  1  0  0  0
  5  7  1  0  0  0
  5  6  2  0  0  0
  8  9  1  0  0  0
  9 12  1  0  0  0
  9 11  1  0  0  0
  9 10  2  0  0  0
 12 13  1  0  0  0
 13 14  1  0  0  0
 14 17  1  0  0  0
 14 16  1  0  0  0
 14 15  1  0  0  0
 17 19  1  0  0  0
 17 18  1  0  0  0
 19 21  1  0  0  0
 19 20  2  0  0  0
 21 22  1  0  0  0
 22 23  1  0  0  0
 23 24  1  0  0  0
 24 26  1  0  0  0
 24 25  2  0  0  0
 26 27  1  0  0  0
 27 28  1  0  0  0
 28 29  1  0  0  0
 29 30  1  0  0  0
 30 32  1  0  0  0
 30 31  2  0  0  0
 32 33  1  0  0  0
 33 35  1  0  0  0
 33 34  2  0  0  0
 36 37  1  0  0  0
 37 49  1  0  0  0
 37 39  1  0  0  0
 37 38  1  0  0  0
 39 48  1  0  0  0
 39 40  1  0  0  0
 40 41  2  0  0  0
 41 42  1  0  0  0
 42 48  2  0  0  0
 42 43  1  0  0  0
 43 45  2  0  0  0
 43 44  1  0  0  0
 45 46  1  0  0  0
 46 47  2  0  0  0
 47 48  1  0  0  0
 49 52  1  0  0  0
 49 51  1  0  0  0
 49 50  1  0  0  0
 52 54  1  0  0  0
 52 53  1  0  0  0
 54 55  1  0  0  0
 55 58  1  0  0  0
 55 57  1  0  0  0
 55 56  2  0  0  0
M  END
> <SMILES>
[H]C3(COP(=O)(O)OP(=O)(O)OCC(C)(C)C(O)C(=O)NCCC(=O)NCCSC(=O)CC(=O)O)(OC([H])(N2C=NC=1C(N)=NC=NC=12)C([H])(O)C3([H])(OP(=O)(O)O))

> <NAME>
MALONYL-COA

> <BioCyc_link>
http://biocyc.org/HUMAN/NEW-IMAGE?object=MALONYL-COA

> <BioCyc_name_HTML>
malonyl-CoA

> <CAS>
524-14-1

> <KEGG_ID>
C00083

> <toxTree.tree.cramer.CramerTreeResult>


> <FORMULA>


> <toxTree.tree.cramer.CramerRules>


$$$$
HYPOTAURINE
 OpenBabel30120812303D

  6  5  0  0  0  0  0  0  0  0999 V2000
    1.0000    0.0000    0.0000 N   0  0  0  0  0
    2.5000    0.0000    0.0000 C   0  0  0  0  0
    3.0007    1.4140    0.0000 C   0  0  0  0  0
    4.5007    1.4140    0.0000 S   0  0  0  0  0
    5.0200    0.6792   -1.2002 O   0  0  0  0  0
    5.0014    2.8279    0.0000 O   0  0  0  0  0
  1  2  1  0  0  0
  2  3  1  0  0  0
  3  4  1  0  0  0
  4  6  1  0  0  0
  4  5  2  0  0  0
M  END
> <SMILES>
NCCS(=O)O

> <NAME>
HYPOTAURINE

> <BioCyc_link>
http://biocyc.org/HUMAN/NEW-IMAGE?object=HYPOTAURINE

> <BioCyc_name_HTML>
hypotaurine

> <CAS>
300-84-5

> <KEGG_ID>
C00519

> <toxTree.tree.cramer.CramerTreeResult>


> <FORMULA>


> <toxTree.tree.cramer.CramerRules>


$$$$
GUANOSINE_DIPHOSPHATE_FUCOSE
 OpenBabel30120812303D

 47 50  0  0  0  0  0  0  0  0999 V2000
    1.0000    0.0000    0.0000 H   0  0  0  0  0
    2.5000    0.0000    0.0000 C   0  0  0  0  0
    2.9688    0.1628    1.4155 C   0  0  0  0  0
    3.0315   -1.3200   -0.5633 O   0  0  0  0  0
    2.6379   -1.4463   -1.9315 C   0  0  0  0  0
    1.1440   -1.3129   -1.9536 H   0  0  0  0  0
    3.0711   -2.7838   -2.4545 O   0  0  0  0  0
    2.6585   -2.9175   -3.8904 P   0  0  0  0  0
    1.1654   -2.8106   -3.9864 O   0  0  0  0  0
    3.2661   -1.8178   -4.7099 O   0  0  0  0  0
    3.0918   -4.2549   -4.4134 O   0  0  0  0  0
    2.6792   -4.3886   -5.8493 P   0  0  0  0  0
    1.1861   -4.2818   -5.9453 O   0  0  0  0  0
    3.2867   -3.2889   -6.6688 O   0  0  0  0  0
    3.1125   -5.7261   -6.3724 O   0  0  0  0  0
    2.6998   -5.8598   -7.8083 C   0  0  0  0  0
    3.1331   -7.1972   -8.3313 C   0  0  0  0  0
    3.3235   -7.0019   -9.8063 H   0  0  0  0  0
    4.3834   -7.6235   -7.5234 O   0  0  0  0  0
    4.4440   -9.1539   -7.7740 C   0  0  0  0  0
    5.2592   -9.8707   -6.7389 H   0  0  0  0  0
    5.0993   -9.4633   -9.0874 N   0  0  0  0  0
    5.2109  -10.6839   -9.6353 C   0  0  0  0  0
    5.8283  -10.5872  -10.8888 N   0  0  0  0  0
    6.1033   -9.3219  -11.1309 C   0  0  0  0  0
    6.7274   -8.5902  -12.2334 C   0  0  0  0  0
    7.2230   -9.2991  -13.4589 O   0  0  0  0  0
    6.8419   -7.2179  -12.0998 N   0  0  0  0  0
    6.3641   -6.5801  -10.9602 C   0  0  0  0  0
    6.4987   -5.0889  -10.8695 N   0  0  0  0  0
    5.8036   -7.2142   -9.9639 N   0  0  0  0  0
    5.6397   -8.5482   -9.9693 C   0  0  0  0  0
    2.9660   -9.5976   -7.7693 C   0  0  0  0  0
    2.5733  -10.1429   -6.4283 H   0  0  0  0  0
    2.7362  -10.6936   -8.7672 O   0  0  0  0  0
    2.1329   -8.3532   -8.1235 C   0  0  0  0  0
    1.1591   -8.0300   -7.0293 H   0  0  0  0  0
    1.3267   -8.5889   -9.3663 O   0  0  0  0  0
    3.1450   -0.4160   -2.7815 C   0  0  0  0  0
    2.6818   -0.6625   -4.1867 H   0  0  0  0  0
    4.6449   -0.4238   -2.7694 O   0  0  0  0  0
    2.6181    0.9406   -2.3079 C   0  0  0  0  0
    1.1216    0.9571   -2.4091 H   0  0  0  0  0
    3.1588    2.0403   -3.1730 O   0  0  0  0  0
    3.0321    1.1590   -0.8492 C   0  0  0  0  0
    2.4525    2.4503   -0.3527 H   0  0  0  0  0
    4.5256    1.2439   -0.7383 O   0  0  0  0  0
  1  2  1  0  0  0
  2 45  1  0  0  0
  2  4  1  0  0  0
  2  3  1  0  0  0
  4  5  1  0  0  0
  5 39  1  0  0  0
  5  7  1  0  0  0
  5  6  1  0  0  0
  7  8  1  0  0  0
  8 11  1  0  0  0
  8 10  1  0  0  0
  8  9  2  0  0  0
 11 12  1  0  0  0
 12 15  1  0  0  0
 12 14  1  0  0  0
 12 13  2  0  0  0
 15 16  1  0  0  0
 16 17  1  0  0  0
 17 36  1  0  0  0
 17 19  1  0  0  0
 17 18  1  0  0  0
 19 20  1  0  0  0
 20 33  1  0  0  0
 20 22  1  0  0  0
 20 21  1  0  0  0
 22 32  1  0  0  0
 22 23  1  0  0  0
 23 24  2  0  0  0
 24 25  1  0  0  0
 25 32  2  0  0  0
 25 26  1  0  0  0
 26 28  1  0  0  0
 26 27  2  0  0  0
 28 29  1  0  0  0
 29 31  2  0  0  0
 29 30  1  0  0  0
 31 32  1  0  0  0
 33 36  1  0  0  0
 33 35  1  0  0  0
 33 34  1  0  0  0
 36 38  1  0  0  0
 36 37  1  0  0  0
 39 42  1  0  0  0
 39 41  1  0  0  0
 39 40  1  0  0  0
 42 45  1  0  0  0
 42 44  1  0  0  0
 42 43  1  0  0  0
 45 47  1  0  0  0
 45 46  1  0  0  0
M  END
> <SMILES>
[H]C4(C)(OC([H])(OP(=O)(O)OP(=O)(O)OCC3([H])(OC([H])(N2C=NC=1C(=O)NC(N)=NC=12)C([H])(O)C3([H])(O)))C([H])(O)C([H])(O)C4([H])(O))

> <NAME>
GUANOSINE_DIPHOSPHATE_FUCOSE

> <BioCyc_link>
http://biocyc.org/HUMAN/NEW-IMAGE?object=GUANOSINE_DIPHOSPHATE_FUCOSE

> <BioCyc_name_HTML>
GDP-L-fucose

> <CAS>
15839-70-0

> <KEGG_ID>
C00325

> <toxTree.tree.cramer.CramerTreeResult>


> <FORMULA>


> <toxTree.tree.cramer.CramerRules>


$$$$
SEPO3
 OpenBabel30120812303D

  5  4  0  0  0  0  0  0  0  0999 V2000
    1.0000    0.0000    0.0000 O   0  0  0  0  0
    2.5000    0.0000    0.0000 P   0  0  0  0  0
    2.9931   -0.6977    1.2329 O   0  0  0  0  0
    3.0193   -0.7348   -1.2002 O   0  0  0  0  0
    3.0007    1.4140    0.0000 Se  0  0  0  0  0
  1  2  1  0  0  0
  2  5  2  0  0  0
  2  4  1  0  0  0
  2  3  1  0  0  0
M  END
> <SMILES>
OP(O)(O)=[Se]

> <NAME>
SEPO3

> <BioCyc_link>
http://biocyc.org/HUMAN/NEW-IMAGE?object=SEPO3

> <BioCyc_name_HTML>
selenophosphate

> <CAS>
16561-29-8

> <KEGG_ID>
C05172

> <toxTree.tree.cramer.CramerTreeResult>


> <FORMULA>


> <toxTree.tree.cramer.CramerRules>


$$$$
SO3
 OpenBabel30120812303D

  4  3  0  0  0  0  0  0  0  0999 V2000
    1.0000    0.0000    0.0000 O   0  0  0  0  0
    2.5000    0.0000    0.0000 S   0  0  0  0  0
    3.0193   -0.7348   -1.2002 O   0  0  0  0  0
    3.0007    1.4140    0.0000 O   0  0  0  0  0
  1  2  1  0  0  0
  2  4  1  0  0  0
  2  3  2  0  0  0
M  END
> <SMILES>
OS(=O)O

> <NAME>
SO3

> <BioCyc_link>
http://biocyc.org/HUMAN/NEW-IMAGE?object=SO3

> <BioCyc_name_HTML>
sulfite

> <CAS>
7782-99-2

> <KEGG_ID>
C00094

> <toxTree.tree.cramer.CramerTreeResult>


> <FORMULA>


> <toxTree.tree.cramer.CramerRules>


$$$$
PHOSPHORIBOSYL-ATP_1
 OpenBabel30120812303D

 52 55  0  0  0  0  0  0  0  0999 V2000
    1.0000    0.0000    0.0000 H   0  0  0  0  0
    2.5000    0.0000    0.0000 C   0  0  0  0  0
    2.9034    0.1217   -1.4396 C   0  0  0  0  0
    4.3999    0.1302   -1.5413 O   0  0  0  0  0
    4.8033    0.2519   -2.9809 P   0  0  0  0  0
    4.2639   -0.9208   -3.7449 O   0  0  0  0  0
    4.2352    1.5066   -3.5751 O   0  0  0  0  0
    6.2998    0.2605   -3.0825 O   0  0  0  0  0
    3.0599    1.1537    0.8679 O   0  0  0  0  0
    4.4904    0.6582    1.2094 C   0  0  0  0  0
    5.0630    1.3496    2.4111 H   0  0  0  0  0
    5.4454    0.9430    0.0883 N   0  0  0  0  0
    6.1010   -0.1034   -0.5515 C   0  0  0  0  0
    6.9362    0.0709   -1.5419 N   0  0  0  0  0
    7.2232    1.2912   -2.0265 C   0  0  0  0  0
    6.5788    2.4695   -1.4271 C   0  0  0  0  0
    7.0239    3.5266   -2.0750 N   0  0  0  0  0
    7.9220    3.1056   -3.0639 C   0  0  0  0  0
    8.0395    1.7686   -3.0330 N   0  0  0  0  0
    8.9056    0.9387   -3.9337 C   0  0  0  0  0
    8.5720    1.3915   -5.3243 H   0  0  0  0  0
   10.4139    1.1141   -3.6308 O   0  0  0  0  0
   11.0307   -0.1849   -4.2144 C   0  0  0  0  0
   12.3826   -0.4848   -3.6379 H   0  0  0  0  0
   11.2416   -0.0680   -5.6949 C   0  0  0  0  0
   11.8377   -1.3413   -6.2179 O   0  0  0  0  0
   12.0485   -1.2243   -7.6984 P   0  0  0  0  0
   10.7271   -0.9873   -8.3674 O   0  0  0  0  0
   12.9497   -0.0650   -8.0046 O   0  0  0  0  0
   12.6446   -2.4976   -8.2213 O   0  0  0  0  0
   12.8555   -2.3807   -9.7018 P   0  0  0  0  0
   11.5341   -2.1436  -10.3709 O   0  0  0  0  0
   13.7566   -1.2213  -10.0081 O   0  0  0  0  0
   13.4515   -3.6540  -10.2248 O   0  0  0  0  0
   13.6624   -3.5371  -11.7053 P   0  0  0  0  0
   12.3410   -3.3000  -12.3743 O   0  0  0  0  0
   14.5635   -2.3777  -12.0115 O   0  0  0  0  0
   14.2585   -4.8104  -12.2282 O   0  0  0  0  0
    9.9942   -1.2789   -3.8828 C   0  0  0  0  0
   10.3774   -2.0220   -2.6374 H   0  0  0  0  0
    9.9185   -2.2922   -4.9862 O   0  0  0  0  0
    8.6432   -0.5641   -3.7043 C   0  0  0  0  0
    8.0840   -0.8081   -2.3340 H   0  0  0  0  0
    7.6330   -1.0834   -4.6841 O   0  0  0  0  0
    5.6481    2.2492   -0.3200 C   0  0  0  0  0
    4.9423    3.3933    0.3455 N   0  0  0  0  0
    4.3235   -0.8601    1.4286 C   0  0  0  0  0
    4.1957   -1.1812    2.8882 H   0  0  0  0  0
    5.5233   -1.6057    0.9241 O   0  0  0  0  0
    3.0578   -1.2782    0.6595 C   0  0  0  0  0
    2.0467   -1.8906    1.5829 H   0  0  0  0  0
    3.3824   -2.3132   -0.3765 O   0  0  0  0  0
  1  2  1  0  0  0
  2 50  1  0  0  0
  2  9  1  0  0  0
  2  3  1  0  0  0
  3  4  1  0  0  0
  4  5  1  0  0  0
  5  8  1  0  0  0
  5  7  1  0  0  0
  5  6  2  0  0  0
  9 10  1  0  0  0
 10 47  1  0  0  0
 10 12  1  0  0  0
 10 11  1  0  0  0
 12 13  1  0  0  0
 12 45  2  0  0  0
 13 14  2  0  0  0
 14 15  1  0  0  0
 15 19  1  0  0  0
 15 16  2  0  0  0
 16 17  1  0  0  0
 16 45  1  0  0  0
 17 18  2  0  0  0
 18 19  1  0  0  0
 19 20  1  0  0  0
 20 42  1  0  0  0
 20 22  1  0  0  0
 20 21  1  0  0  0
 22 23  1  0  0  0
 23 39  1  0  0  0
 23 25  1  0  0  0
 23 24  1  0  0  0
 25 26  1  0  0  0
 26 27  1  0  0  0
 27 30  1  0  0  0
 27 29  1  0  0  0
 27 28  2  0  0  0
 30 31  1  0  0  0
 31 34  1  0  0  0
 31 33  1  0  0  0
 31 32  2  0  0  0
 34 35  1  0  0  0
 35 38  1  0  0  0
 35 37  1  0  0  0
 35 36  2  0  0  0
 39 42  1  0  0  0
 39 41  1  0  0  0
 39 40  1  0  0  0
 42 44  1  0  0  0
 42 43  1  0  0  0
 45 46  1  0  0  0
 47 50  1  0  0  0
 47 49  1  0  0  0
 47 48  1  0  0  0
 50 52  1  0  0  0
 50 51  1  0  0  0
M  END
> <SMILES>
[H]C4(COP(=O)(O)O)(OC([H])(N3C=NC1=C(N=CN1C2([H])(OC([H])(COP(=O)(O)OP(=O)(O)OP(=O)(O)O)C([H])(O)C2([H])(O)))C=3(N))C([H])(O)C4([H])(O))

> <NAME>
PHOSPHORIBOSYL-ATP_1

> <BioCyc_link>
http://biocyc.org/HUMAN/NEW-IMAGE?object=PHOSPHORIBOSYL-ATP_1

> <BioCyc_name_HTML>
phosphoribosyl-ATP

> <CAS>


> <KEGG_ID>
C02739

> <toxTree.tree.cramer.CramerTreeResult>


> <FORMULA>


> <toxTree.tree.cramer.CramerRules>


$$$$
SULFATE
 OpenBabel30120812303D

  5  4  0  0  0  0  0  0  0  0999 V2000
    1.0000    0.0000    0.0000 O   0  0  0  0  0
    2.5000    0.0000    0.0000 S   0  0  0  0  0
    2.9931   -0.6977    1.2329 O   0  0  0  0  0
    3.0193   -0.7348   -1.2002 O   0  0  0  0  0
    3.0007    1.4140    0.0000 O   0  0  0  0  0
  1  2  1  0  0  0
  2  5  1  0  0  0
  2  4  2  0  0  0
  2  3  2  0  0  0
M  END
> <SMILES>
OS(=O)(=O)O

> <NAME>
SULFATE

> <BioCyc_link>
http://biocyc.org/HUMAN/NEW-IMAGE?object=SULFATE

> <BioCyc_name_HTML>
sulfate

> <CAS>
14808-79-8

> <KEGG_ID>
C00059

> <toxTree.tree.cramer.CramerTreeResult>


> <FORMULA>


> <toxTree.tree.cramer.CramerRules>


$$$$
DELTA3-ISOPENTENYL-PP
 OpenBabel30120812303D

 14 13  0  0  0  0  0  0  0  0999 V2000
    1.0000    0.0000    0.0000 C   0  0  0  0  0
    2.5000    0.0000    0.0000 C   0  0  0  0  0
    3.2500   -1.2990    0.0000 C   0  0  0  0  0
    3.2500    1.2990    0.0000 C   0  0  0  0  0
    4.7249    1.0257    0.0000 C   0  0  0  0  0
    5.4749    2.3247    0.0000 O   0  0  0  0  0
    6.9498    2.0514    0.0000 P   0  0  0  0  0
    7.3074    1.2755    1.2329 O   0  0  0  0  0
    7.3265    1.2342   -1.2002 O   0  0  0  0  0
    7.6998    3.3504    0.0000 O   0  0  0  0  0
    9.1746    3.0771    0.0000 P   0  0  0  0  0
    9.5323    2.3012    1.2329 O   0  0  0  0  0
    9.5514    2.2599   -1.2002 O   0  0  0  0  0
    9.9246    4.3761    0.0000 O   0  0  0  0  0
  1  2  1  0  0  0
  2  4  1  0  0  0
  2  3  2  0  0  0
  4  5  1  0  0  0
  5  6  1  0  0  0
  6  7  1  0  0  0
  7 10  1  0  0  0
  7  9  1  0  0  0
  7  8  2  0  0  0
 10 11  1  0  0  0
 11 14  1  0  0  0
 11 13  1  0  0  0
 11 12  2  0  0  0
M  END
> <SMILES>
CC(=C)CCOP(=O)(O)OP(=O)(O)O

> <NAME>
DELTA3-ISOPENTENYL-PP

> <BioCyc_link>
http://biocyc.org/HUMAN/NEW-IMAGE?object=DELTA3-ISOPENTENYL-PP

> <BioCyc_name_HTML>
isopentenyl

> <CAS>


> <KEGG_ID>
C00129

> <toxTree.tree.cramer.CramerTreeResult>


> <FORMULA>


> <toxTree.tree.cramer.CramerRules>


$$$$
CPD-444
 OpenBabel30120812303D

 19 19  0  0  0  0  0  0  0  0999 V2000
    1.0000    0.0000    0.0000 H   0  0  0  0  0
    2.5000    0.0000    0.0000 C   0  0  0  0  0
    2.9034    0.1217   -1.4396 O   0  0  0  0  0
    3.0599    1.1537    0.8679 C   0  0  0  0  0
    3.0416    2.4828    0.1728 H   0  0  0  0  0
    2.2387    1.3587    2.1063 O   0  0  0  0  0
    4.4904    0.6582    1.2094 C   0  0  0  0  0
    5.0630    1.3496    2.4111 H   0  0  0  0  0
    4.3235   -0.8601    1.4286 O   0  0  0  0  0
    3.0578   -1.2782    0.6595 C   0  0  0  0  0
    2.0467   -1.8906    1.5829 H   0  0  0  0  0
    3.3824   -2.3132   -0.3765 C   0  0  0  0  0
    2.1309   -2.6995   -1.1076 S   0  0  0  0  0
    2.4555   -3.7345   -2.1437 C   0  0  0  0  0
    5.4454    0.9430    0.0883 O   0  0  0  0  0
    6.8129    0.4496    0.4579 P   0  0  0  0  0
    7.2767    1.1621    1.6937 O   0  0  0  0  0
    6.7738   -1.0220    0.7457 O   0  0  0  0  0
    7.7679    0.7344   -0.6632 O   0  0  0  0  0
  1  2  1  0  0  0
  2 10  1  0  0  0
  2  4  1  0  0  0
  2  3  1  0  0  0
  4  7  1  0  0  0
  4  6  1  0  0  0
  4  5  1  0  0  0
  7  9  1  0  0  0
  7 15  1  0  0  0
  7  8  1  0  0  0
  9 10  1  0  0  0
 10 12  1  0  0  0
 10 11  1  0  0  0
 12 13  1  0  0  0
 13 14  1  0  0  0
 15 16  1  0  0  0
 16 19  1  0  0  0
 16 18  1  0  0  0
 16 17  2  0  0  0
M  END
> <SMILES>
[H]C1(O)(C([H])(O)C([H])(OC1([H])(CSC))OP(=O)(O)O)

> <NAME>
CPD-444

> <BioCyc_link>
http://biocyc.org/HUMAN/NEW-IMAGE?object=CPD-444

> <BioCyc_name_HTML>
5-methylthioribose-1-phosphate

> <CAS>


> <KEGG_ID>
C04188

> <toxTree.tree.cramer.CramerTreeResult>


> <FORMULA>


> <toxTree.tree.cramer.CramerRules>


$$$$
DIHYDRONEOPTERIN-P3
 OpenBabel30120812303D

 32 33  0  0  0  0  0  0  0  0999 V2000
    1.0000    0.0000    0.0000 H   0  0  0  0  0
    2.5000    0.0000    0.0000 C   0  0  0  0  0
    2.9931   -0.6977    1.2329 O   0  0  0  0  0
    3.0193   -0.7348   -1.2002 C   0  0  0  0  0
    2.5089   -2.1452   -1.1833 O   0  0  0  0  0
    3.0282   -2.8800   -2.3834 P   0  0  0  0  0
    2.5451   -2.1957   -3.6277 O   0  0  0  0  0
    4.5282   -2.8706   -2.3892 O   0  0  0  0  0
    2.5178   -4.2904   -2.3666 O   0  0  0  0  0
    3.0371   -5.0252   -3.5667 P   0  0  0  0  0
    2.5540   -4.3409   -4.8110 O   0  0  0  0  0
    4.5371   -5.0158   -3.5725 O   0  0  0  0  0
    2.5267   -6.4356   -3.5499 O   0  0  0  0  0
    3.0460   -7.1704   -4.7500 P   0  0  0  0  0
    2.5630   -6.4861   -5.9943 O   0  0  0  0  0
    4.5460   -7.1610   -4.7558 O   0  0  0  0  0
    2.5356   -8.5808   -4.7331 O   0  0  0  0  0
    3.0007    1.4140    0.0000 C   0  0  0  0  0
    2.5076    2.1117   -1.2329 H   0  0  0  0  0
    2.4814    2.1488    1.2002 O   0  0  0  0  0
    4.5007    1.4140    0.0000 C   0  0  0  0  0
    5.1696    1.4135    1.2244 C   0  0  0  0  0
    6.5174    1.4135    1.2973 N   0  0  0  0  0
    7.2911    1.4142    0.0494 C   0  0  0  0  0
    8.6854    1.4153    0.0442 N   0  0  0  0  0
    9.3571    1.4168   -1.1584 C   0  0  0  0  0
   10.8571    1.4125   -1.1703 N   0  0  0  0  0
    8.6608    1.4222   -2.3603 N   0  0  0  0  0
    7.2943    1.4151   -2.3789 C   0  0  0  0  0
    6.5585    1.4079   -3.6860 O   0  0  0  0  0
    6.5864    1.4146   -1.1753 C   0  0  0  0  0
    5.1238    1.4144   -1.1405 N   0  0  0  0  0
  1  2  1  0  0  0
  2 18  1  0  0  0
  2  4  1  0  0  0
  2  3  1  0  0  0
  4  5  1  0  0  0
  5  6  1  0  0  0
  6  9  1  0  0  0
  6  8  1  0  0  0
  6  7  2  0  0  0
  9 10  1  0  0  0
 10 13  1  0  0  0
 10 12  1  0  0  0
 10 11  2  0  0  0
 13 14  1  0  0  0
 14 17  1  0  0  0
 14 16  1  0  0  0
 14 15  2  0  0  0
 18 21  1  0  0  0
 18 20  1  0  0  0
 18 19  1  0  0  0
 21 22  1  0  0  0
 21 32  2  0  0  0
 22 23  1  0  0  0
 23 24  1  0  0  0
 24 25  1  0  0  0
 24 31  2  0  0  0
 25 26  2  0  0  0
 26 28  1  0  0  0
 26 27  1  0  0  0
 28 29  1  0  0  0
 29 31  1  0  0  0
 29 30  2  0  0  0
 31 32  1  0  0  0
M  END
> <SMILES>
[H]C(O)(COP(=O)(O)OP(=O)(O)OP(=O)(O)O)C([H])(O)C=1CNC=2N=C(N)NC(=O)C=2(N=1)

> <NAME>
DIHYDRONEOPTERIN-P3

> <BioCyc_link>
http://biocyc.org/HUMAN/NEW-IMAGE?object=DIHYDRONEOPTERIN-P3

> <BioCyc_name_HTML>
7,8-dihydroneopterin

> <CAS>


> <KEGG_ID>
C04895

> <toxTree.tree.cramer.CramerTreeResult>


> <FORMULA>


> <toxTree.tree.cramer.CramerRules>


$$$$
GALACTOSE-1P
 OpenBabel30120812303D

 21 21  0  0  0  0  0  0  0  0999 V2000
    1.0000    0.0000    0.0000 H   0  0  0  0  0
    2.5000    0.0000    0.0000 C   0  0  0  0  0
    2.9688    0.1628    1.4155 O   0  0  0  0  0
    3.0315   -1.3200   -0.5633 C   0  0  0  0  0
    4.5290   -1.3263   -0.4777 H   0  0  0  0  0
    2.5069   -2.4752    0.2370 O   0  0  0  0  0
    2.6379   -1.4463   -1.9315 C   0  0  0  0  0
    1.1440   -1.3129   -1.9536 H   0  0  0  0  0
    3.0711   -2.7838   -2.4545 C   0  0  0  0  0
    2.6585   -2.9175   -3.8904 O   0  0  0  0  0
    3.1450   -0.4160   -2.7815 O   0  0  0  0  0
    2.6181    0.9406   -2.3079 C   0  0  0  0  0
    1.1216    0.9571   -2.4091 H   0  0  0  0  0
    3.1588    2.0403   -3.1730 O   0  0  0  0  0
    2.6315    3.3600   -2.6932 P   0  0  0  0  0
    1.1341    3.3543   -2.7815 O   0  0  0  0  0
    3.0211    3.5858   -1.2624 O   0  0  0  0  0
    3.1722    4.4597   -3.5583 O   0  0  0  0  0
    3.0321    1.1590   -0.8492 C   0  0  0  0  0
    2.4525    2.4503   -0.3527 H   0  0  0  0  0
    4.5256    1.2439   -0.7383 O   0  0  0  0  0
  1  2  1  0  0  0
  2 19  1  0  0  0
  2  4  1  0  0  0
  2  3  1  0  0  0
  4  7  1  0  0  0
  4  6  1  0  0  0
  4  5  1  0  0  0
  7 11  1  0  0  0
  7  9  1  0  0  0
  7  8  1  0  0  0
  9 10  1  0  0  0
 11 12  1  0  0  0
 12 19  1  0  0  0
 12 14  1  0  0  0
 12 13  1  0  0  0
 14 15  1  0  0  0
 15 18  1  0  0  0
 15 17  1  0  0  0
 15 16  2  0  0  0
 19 21  1  0  0  0
 19 20  1  0  0  0
M  END
> <SMILES>
[H]C1(O)(C([H])(O)C([H])(CO)OC([H])(OP(=O)(O)O)C1([H])(O))

> <NAME>
GALACTOSE-1P

> <BioCyc_link>
http://biocyc.org/HUMAN/NEW-IMAGE?object=GALACTOSE-1P

> <BioCyc_name_HTML>
&alpha;-D-galactose

> <CAS>
2255-14-3

> <KEGG_ID>
C00446

> <toxTree.tree.cramer.CramerTreeResult>


> <FORMULA>


> <toxTree.tree.cramer.CramerRules>


$$$$
PALMITYL-COA
 OpenBabel30120812303D

 69 71  0  0  0  0  0  0  0  0999 V2000
    1.0000    0.0000    0.0000 H   0  0  0  0  0
    2.5000    0.0000    0.0000 C   0  0  0  0  0
    2.9034    0.1217   -1.4396 C   0  0  0  0  0
    4.3999    0.1302   -1.5413 O   0  0  0  0  0
    4.8033    0.2519   -2.9809 P   0  0  0  0  0
    4.2639   -0.9208   -3.7449 O   0  0  0  0  0
    4.2352    1.5066   -3.5751 O   0  0  0  0  0
    6.2998    0.2605   -3.0825 O   0  0  0  0  0
    6.7032    0.3821   -4.5222 P   0  0  0  0  0
    6.1638   -0.7906   -5.2862 O   0  0  0  0  0
    6.1351    1.6368   -5.1164 O   0  0  0  0  0
    8.1997    0.3907   -4.6238 O   0  0  0  0  0
    8.6031    0.5124   -6.0634 C   0  0  0  0  0
   10.0996    0.5210   -6.1651 C   0  0  0  0  0
   10.6390    1.6937   -5.4011 C   0  0  0  0  0
   10.6677   -0.7337   -5.5708 C   0  0  0  0  0
   10.5030    0.6426   -7.6047 C   0  0  0  0  0
    9.9349    1.8973   -8.1989 O   0  0  0  0  0
   11.9995    0.6512   -7.7064 C   0  0  0  0  0
   12.8362    0.5464   -6.4658 O   0  0  0  0  0
   12.6594    0.7647   -9.0486 N   0  0  0  0  0
   14.1560    0.7733   -9.1503 C   0  0  0  0  0
   14.5594    0.8949  -10.5899 C   0  0  0  0  0
   16.0559    0.9035  -10.6915 C   0  0  0  0  0
   16.8925    0.7987   -9.4509 O   0  0  0  0  0
   16.7158    1.0169  -12.0338 N   0  0  0  0  0
   18.2123    1.0255  -12.1355 C   0  0  0  0  0
   18.6157    1.1472  -13.5751 C   0  0  0  0  0
   20.1122    1.1558  -13.6767 S   0  0  0  0  0
   20.5156    1.2774  -15.1163 C   0  0  0  0  0
   19.4661    1.3677  -16.1842 O   0  0  0  0  0
   21.9685    1.3088  -15.4881 C   0  0  0  0  0
   22.1018    1.4346  -16.9768 C   0  0  0  0  0
   23.5547    1.4661  -17.3485 C   0  0  0  0  0
   23.6880    1.5919  -18.8373 C   0  0  0  0  0
   25.1409    1.6233  -19.2090 C   0  0  0  0  0
   25.2743    1.7491  -20.6977 C   0  0  0  0  0
   26.7271    1.7805  -21.0694 C   0  0  0  0  0
   26.8605    1.9063  -22.5582 C   0  0  0  0  0
   28.3134    1.9377  -22.9299 C   0  0  0  0  0
   28.4467    2.0635  -24.4187 C   0  0  0  0  0
   29.8996    2.0949  -24.7904 C   0  0  0  0  0
   30.0329    2.2207  -26.2791 C   0  0  0  0  0
   31.4858    2.2522  -26.6508 C   0  0  0  0  0
   31.6191    2.3780  -28.1396 C   0  0  0  0  0
   33.0720    2.4094  -28.5113 C   0  0  0  0  0
    3.0599    1.1537    0.8679 O   0  0  0  0  0
    4.4904    0.6582    1.2094 C   0  0  0  0  0
    5.0630    1.3496    2.4111 H   0  0  0  0  0
    5.4454    0.9430    0.0883 N   0  0  0  0  0
    6.1375    0.0329   -0.6155 C   0  0  0  0  0
    6.9010    0.6737   -1.5995 N   0  0  0  0  0
    6.6943    1.9723   -1.5194 C   0  0  0  0  0
    7.1824    3.1454   -2.2447 C   0  0  0  0  0
    8.1503    3.0122   -3.3829 N   0  0  0  0  0
    6.7152    4.3825   -1.8381 N   0  0  0  0  0
    5.8084    4.4812   -0.7884 C   0  0  0  0  0
    5.3597    3.4468   -0.1271 N   0  0  0  0  0
    5.7422    2.1921   -0.4204 C   0  0  0  0  0
    4.3235   -0.8601    1.4286 C   0  0  0  0  0
    4.1957   -1.1812    2.8882 H   0  0  0  0  0
    5.5233   -1.6057    0.9241 O   0  0  0  0  0
    3.0578   -1.2782    0.6595 C   0  0  0  0  0
    2.0467   -1.8906    1.5829 H   0  0  0  0  0
    3.3824   -2.3132   -0.3765 O   0  0  0  0  0
    2.1309   -2.6995   -1.1076 P   0  0  0  0  0
    1.1459   -3.2710   -0.1313 O   0  0  0  0  0
    1.5136   -1.4944   -1.7531 O   0  0  0  0  0
    2.4555   -3.7345   -2.1437 O   0  0  0  0  0
  1  2  1  0  0  0
  2 63  1  0  0  0
  2 47  1  0  0  0
  2  3  1  0  0  0
  3  4  1  0  0  0
  4  5  1  0  0  0
  5  8  1  0  0  0
  5  7  1  0  0  0
  5  6  2  0  0  0
  8  9  1  0  0  0
  9 12  1  0  0  0
  9 11  1  0  0  0
  9 10  2  0  0  0
 12 13  1  0  0  0
 13 14  1  0  0  0
 14 17  1  0  0  0
 14 16  1  0  0  0
 14 15  1  0  0  0
 17 19  1  0  0  0
 17 18  1  0  0  0
 19 21  1  0  0  0
 19 20  2  0  0  0
 21 22  1  0  0  0
 22 23  1  0  0  0
 23 24  1  0  0  0
 24 26  1  0  0  0
 24 25  2  0  0  0
 26 27  1  0  0  0
 27 28  1  0  0  0
 28 29  1  0  0  0
 29 30  1  0  0  0
 30 32  1  0  0  0
 30 31  2  0  0  0
 32 33  1  0  0  0
 33 34  1  0  0  0
 34 35  1  0  0  0
 35 36  1  0  0  0
 36 37  1  0  0  0
 37 38  1  0  0  0
 38 39  1  0  0  0
 39 40  1  0  0  0
 40 41  1  0  0  0
 41 42  1  0  0  0
 42 43  1  0  0  0
 43 44  1  0  0  0
 44 45  1  0  0  0
 45 46  1  0  0  0
 47 48  1  0  0  0
 48 60  1  0  0  0
 48 50  1  0  0  0
 48 49  1  0  0  0
 50 59  1  0  0  0
 50 51  1  0  0  0
 51 52  2  0  0  0
 52 53  1  0  0  0
 53 59  2  0  0  0
 53 54  1  0  0  0
 54 56  2  0  0  0
 54 55  1  0  0  0
 56 57  1  0  0  0
 57 58  2  0  0  0
 58 59  1  0  0  0
 60 63  1  0  0  0
 60 62  1  0  0  0
 60 61  1  0  0  0
 63 65  1  0  0  0
 63 64  1  0  0  0
 65 66  1  0  0  0
 66 69  1  0  0  0
 66 68  1  0  0  0
 66 67  2  0  0  0
M  END
> <SMILES>
[H]C3(COP(=O)(O)OP(=O)(O)OCC(C)(C)C(O)C(=O)NCCC(=O)NCCSC(=O)CCCCCCCCCCCCCCC)(OC([H])(N2C=NC=1C(N)=NC=NC=12)C([H])(O)C3([H])(OP(=O)(O)O))

> <NAME>
PALMITYL-COA

> <BioCyc_link>
http://biocyc.org/HUMAN/NEW-IMAGE?object=PALMITYL-COA

> <BioCyc_name_HTML>
palmitoyl-CoA

> <CAS>
1763-10-6

> <KEGG_ID>
C00154

> <toxTree.tree.cramer.CramerTreeResult>


> <FORMULA>


> <toxTree.tree.cramer.CramerRules>


$$$$
PAP
 OpenBabel30120812303D

 31 33  0  0  0  0  0  0  0  0999 V2000
    1.0000    0.0000    0.0000 H   0  0  0  0  0
    2.5000    0.0000    0.0000 C   0  0  0  0  0
    2.9034    0.1217   -1.4396 C   0  0  0  0  0
    4.3999    0.1302   -1.5413 O   0  0  0  0  0
    4.8033    0.2519   -2.9809 P   0  0  0  0  0
    4.2639   -0.9208   -3.7449 O   0  0  0  0  0
    4.2352    1.5066   -3.5751 O   0  0  0  0  0
    6.2998    0.2605   -3.0825 O   0  0  0  0  0
    3.0599    1.1537    0.8679 O   0  0  0  0  0
    4.4904    0.6582    1.2094 C   0  0  0  0  0
    5.0630    1.3496    2.4111 H   0  0  0  0  0
    5.4454    0.9430    0.0883 N   0  0  0  0  0
    6.1375    0.0329   -0.6155 C   0  0  0  0  0
    6.9010    0.6737   -1.5995 N   0  0  0  0  0
    6.6943    1.9723   -1.5194 C   0  0  0  0  0
    7.1824    3.1454   -2.2447 C   0  0  0  0  0
    8.1503    3.0122   -3.3829 N   0  0  0  0  0
    6.7152    4.3825   -1.8381 N   0  0  0  0  0
    5.8084    4.4812   -0.7884 C   0  0  0  0  0
    5.3597    3.4468   -0.1271 N   0  0  0  0  0
    5.7422    2.1921   -0.4204 C   0  0  0  0  0
    4.3235   -0.8601    1.4286 C   0  0  0  0  0
    4.1957   -1.1812    2.8882 H   0  0  0  0  0
    5.5233   -1.6057    0.9241 O   0  0  0  0  0
    3.0578   -1.2782    0.6595 C   0  0  0  0  0
    2.0467   -1.8906    1.5829 H   0  0  0  0  0
    3.3824   -2.3132   -0.3765 O   0  0  0  0  0
    2.1309   -2.6995   -1.1076 P   0  0  0  0  0
    1.1459   -3.2710   -0.1313 O   0  0  0  0  0
    1.5136   -1.4944   -1.7531 O   0  0  0  0  0
    2.4555   -3.7345   -2.1437 O   0  0  0  0  0
  1  2  1  0  0  0
  2 25  1  0  0  0
  2  9  1  0  0  0
  2  3  1  0  0  0
  3  4  1  0  0  0
  4  5  1  0  0  0
  5  8  1  0  0  0
  5  7  1  0  0  0
  5  6  2  0  0  0
  9 10  1  0  0  0
 10 22  1  0  0  0
 10 12  1  0  0  0
 10 11  1  0  0  0
 12 21  1  0  0  0
 12 13  1  0  0  0
 13 14  2  0  0  0
 14 15  1  0  0  0
 15 21  2  0  0  0
 15 16  1  0  0  0
 16 18  2  0  0  0
 16 17  1  0  0  0
 18 19  1  0  0  0
 19 20  2  0  0  0
 20 21  1  0  0  0
 22 25  1  0  0  0
 22 24  1  0  0  0
 22 23  1  0  0  0
 25 27  1  0  0  0
 25 26  1  0  0  0
 27 28  1  0  0  0
 28 31  1  0  0  0
 28 30  1  0  0  0
 28 29  2  0  0  0
M  END
> <SMILES>
[H]C3(COP(=O)(O)O)(OC([H])(N2C=NC=1C(N)=NC=NC=12)C([H])(O)C3([H])(OP(=O)(O)O))

> <NAME>
PAP

> <BioCyc_link>
http://biocyc.org/HUMAN/NEW-IMAGE?object=PAP

> <BioCyc_name_HTML>
adenosine-3',5'-bisphosphate

> <CAS>
1053-73-2

> <KEGG_ID>
C00054

> <toxTree.tree.cramer.CramerTreeResult>


> <FORMULA>


> <toxTree.tree.cramer.CramerRules>


$$$$
OROTIDINE-5-PHOSPHATE
 OpenBabel30120812303D

 28 29  0  0  0  0  0  0  0  0999 V2000
    1.0000    0.0000    0.0000 H   0  0  0  0  0
    2.5000    0.0000    0.0000 C   0  0  0  0  0
    2.9034    0.1217   -1.4396 C   0  0  0  0  0
    4.3999    0.1302   -1.5413 O   0  0  0  0  0
    4.8033    0.2519   -2.9809 P   0  0  0  0  0
    4.2639   -0.9208   -3.7449 O   0  0  0  0  0
    4.2352    1.5066   -3.5751 O   0  0  0  0  0
    6.2998    0.2605   -3.0825 O   0  0  0  0  0
    3.0599    1.1537    0.8679 O   0  0  0  0  0
    4.4904    0.6582    1.2094 C   0  0  0  0  0
    5.0630    1.3496    2.4111 H   0  0  0  0  0
    5.4454    0.9430    0.0883 N   0  0  0  0  0
    6.0963   -0.0929   -0.5481 C   0  0  0  0  0
    5.8628   -1.5086   -0.1105 O   0  0  0  0  0
    6.9730    0.1781   -1.6005 N   0  0  0  0  0
    7.1798    1.4979   -2.0051 C   0  0  0  0  0
    8.1197    1.7993   -3.1346 O   0  0  0  0  0
    6.5181    2.5240   -1.3642 C   0  0  0  0  0
    5.6502    2.2487   -0.3216 C   0  0  0  0  0
    4.9291    3.3697    0.3665 C   0  0  0  0  0
    5.1492    4.7861   -0.0756 O   0  0  0  0  0
    3.9881    3.0743    1.4966 O   0  0  0  0  0
    4.3235   -0.8601    1.4286 C   0  0  0  0  0
    4.1957   -1.1812    2.8882 H   0  0  0  0  0
    5.5233   -1.6057    0.9241 O   0  0  0  0  0
    3.0578   -1.2782    0.6595 C   0  0  0  0  0
    2.0467   -1.8906    1.5829 H   0  0  0  0  0
    3.3824   -2.3132   -0.3765 O   0  0  0  0  0
  1  2  1  0  0  0
  2 26  1  0  0  0
  2  9  1  0  0  0
  2  3  1  0  0  0
  3  4  1  0  0  0
  4  5  1  0  0  0
  5  8  1  0  0  0
  5  7  1  0  0  0
  5  6  2  0  0  0
  9 10  1  0  0  0
 10 23  1  0  0  0
 10 12  1  0  0  0
 10 11  1  0  0  0
 12 19  1  0  0  0
 12 13  1  0  0  0
 13 15  1  0  0  0
 13 14  2  0  0  0
 15 16  1  0  0  0
 16 18  1  0  0  0
 16 17  2  0  0  0
 18 19  2  0  0  0
 19 20  1  0  0  0
 20 22  1  0  0  0
 20 21  2  0  0  0
 23 26  1  0  0  0
 23 25  1  0  0  0
 23 24  1  0  0  0
 26 28  1  0  0  0
 26 27  1  0  0  0
M  END
> <SMILES>
[H]C2(COP(=O)(O)O)(OC([H])(N1C(=O)NC(=O)C=C1(C(=O)O))C([H])(O)C2([H])(O))

> <NAME>
OROTIDINE-5-PHOSPHATE

> <BioCyc_link>
http://biocyc.org/HUMAN/NEW-IMAGE?object=OROTIDINE-5-PHOSPHATE

> <BioCyc_name_HTML>
orotidine-5'-phosphate

> <CAS>
2149-82-8

> <KEGG_ID>
C01103

> <toxTree.tree.cramer.CramerTreeResult>


> <FORMULA>


> <toxTree.tree.cramer.CramerRules>


$$$$
P-RIBOSYL-4-SUCCCARB-AMINOIMIDAZOLE
 OpenBabel30120812303D

 35 36  0  0  0  0  0  0  0  0999 V2000
    1.0000    0.0000    0.0000 H   0  0  0  0  0
    2.5000    0.0000    0.0000 C   0  0  0  0  0
    2.9931   -0.6977    1.2329 C   0  0  0  0  0
    2.4869    0.0185    2.4498 C   0  0  0  0  0
    1.6256    1.2372    2.2988 O   0  0  0  0  0
    2.8421   -0.4840    3.8178 O   0  0  0  0  0
    3.0193   -0.7348   -1.2002 N   0  0  0  0  0
    2.6508   -2.1726   -1.4167 C   0  0  0  0  0
    1.7630   -2.8756   -0.4330 O   0  0  0  0  0
    3.1701   -2.9074   -2.6168 C   0  0  0  0  0
    3.6818   -2.3880   -3.6992 N   0  0  0  0  0
    3.8351   -3.3921   -4.5963 C   0  0  0  0  0
    3.3982   -4.5153   -3.9765 N   0  0  0  0  0
    3.0054   -4.1723   -2.7802 C   0  0  0  0  0
    2.4468   -5.1109   -1.7520 N   0  0  0  0  0
    3.3711   -5.8976   -4.5583 C   0  0  0  0  0
    3.4889   -5.7137   -6.0423 H   0  0  0  0  0
    4.5127   -6.7750   -3.9884 O   0  0  0  0  0
    3.9836   -8.2150   -4.2229 C   0  0  0  0  0
    4.6633   -9.2236   -3.3451 H   0  0  0  0  0
    4.2428   -8.6661   -5.6297 C   0  0  0  0  0
    3.7174  -10.0590   -5.8137 O   0  0  0  0  0
    3.9766  -10.5101   -7.2206 P   0  0  0  0  0
    3.2730   -9.5880   -8.1717 O   0  0  0  0  0
    5.4463  -10.4661   -7.5176 O   0  0  0  0  0
    3.4512  -11.9030   -7.4046 O   0  0  0  0  0
    2.4702   -8.1135   -3.9390 C   0  0  0  0  0
    2.1552   -8.5552   -2.5405 H   0  0  0  0  0
    1.6948   -9.0074   -4.8608 O   0  0  0  0  0
    2.0812   -6.6400   -4.1523 C   0  0  0  0  0
    1.4953   -6.0534   -2.9023 H   0  0  0  0  0
    1.0365   -6.5149   -5.2214 O   0  0  0  0  0
    3.0007    1.4140    0.0000 C   0  0  0  0  0
    2.0265    2.5546    0.0000 O   0  0  0  0  0
    4.4756    1.6873    0.0000 O   0  0  0  0  0
  1  2  1  0  0  0
  2 33  1  0  0  0
  2  7  1  0  0  0
  2  3  1  0  0  0
  3  4  1  0  0  0
  4  6  1  0  0  0
  4  5  2  0  0  0
  7  8  1  0  0  0
  8 10  1  0  0  0
  8  9  2  0  0  0
 10 11  1  0  0  0
 10 14  2  0  0  0
 11 12  2  0  0  0
 12 13  1  0  0  0
 13 14  1  0  0  0
 13 16  1  0  0  0
 14 15  1  0  0  0
 16 30  1  0  0  0
 16 18  1  0  0  0
 16 17  1  0  0  0
 18 19  1  0  0  0
 19 27  1  0  0  0
 19 21  1  0  0  0
 19 20  1  0  0  0
 21 22  1  0  0  0
 22 23  1  0  0  0
 23 26  1  0  0  0
 23 25  1  0  0  0
 23 24  2  0  0  0
 27 30  1  0  0  0
 27 29  1  0  0  0
 27 28  1  0  0  0
 30 32  1  0  0  0
 30 31  1  0  0  0
 33 35  1  0  0  0
 33 34  2  0  0  0
M  END
> <SMILES>
[H]C(CC(=O)O)(NC(=O)C=1N=CN(C=1(N))C2([H])(OC([H])(COP(=O)(O)O)C([H])(O)C2([H])(O)))C(=O)O

> <NAME>
P-RIBOSYL-4-SUCCCARB-AMINOIMIDAZOLE

> <BioCyc_link>
http://biocyc.org/HUMAN/NEW-IMAGE?object=P-RIBOSYL-4-SUCCCARB-AMINOIMIDAZOLE

> <BioCyc_name_HTML>
5'-phosphoribosyl-4-(N-succinocarboxamide)-5-aminoimidazole

> <CAS>


> <KEGG_ID>
C04823

> <toxTree.tree.cramer.CramerTreeResult>


> <FORMULA>


> <toxTree.tree.cramer.CramerRules>


$$$$
5-PHOSPHORIBOSYL-5-AMINOIMIDAZOLE
 OpenBabel30120812303D

 23 24  0  0  0  0  0  0  0  0999 V2000
    1.0000    0.0000    0.0000 H   0  0  0  0  0
    2.5000    0.0000    0.0000 C   0  0  0  0  0
    2.9034    0.1217   -1.4396 C   0  0  0  0  0
    4.3999    0.1302   -1.5413 O   0  0  0  0  0
    4.8033    0.2519   -2.9809 P   0  0  0  0  0
    4.2639   -0.9208   -3.7449 O   0  0  0  0  0
    4.2352    1.5066   -3.5751 O   0  0  0  0  0
    6.2998    0.2605   -3.0825 O   0  0  0  0  0
    3.0599    1.1537    0.8679 O   0  0  0  0  0
    4.4904    0.6582    1.2094 C   0  0  0  0  0
    5.0630    1.3496    2.4111 H   0  0  0  0  0
    5.4454    0.9430    0.0883 N   0  0  0  0  0
    5.7404    2.1654   -0.4169 C   0  0  0  0  0
    6.6263    1.9503   -1.4196 N   0  0  0  0  0
    6.8270    0.6628   -1.4925 C   0  0  0  0  0
    6.1220    0.0639   -0.5992 C   0  0  0  0  0
    6.0833   -1.4196   -0.3806 N   0  0  0  0  0
    4.3235   -0.8601    1.4286 C   0  0  0  0  0
    4.1957   -1.1812    2.8882 H   0  0  0  0  0
    5.5233   -1.6057    0.9241 O   0  0  0  0  0
    3.0578   -1.2782    0.6595 C   0  0  0  0  0
    2.0467   -1.8906    1.5829 H   0  0  0  0  0
    3.3824   -2.3132   -0.3765 O   0  0  0  0  0
  1  2  1  0  0  0
  2 21  1  0  0  0
  2  9  1  0  0  0
  2  3  1  0  0  0
  3  4  1  0  0  0
  4  5  1  0  0  0
  5  8  1  0  0  0
  5  7  1  0  0  0
  5  6  2  0  0  0
  9 10  1  0  0  0
 10 18  1  0  0  0
 10 12  1  0  0  0
 10 11  1  0  0  0
 12 13  1  0  0  0
 12 16  1  0  0  0
 13 14  2  0  0  0
 14 15  1  0  0  0
 15 16  2  0  0  0
 16 17  1  0  0  0
 18 21  1  0  0  0
 18 20  1  0  0  0
 18 19  1  0  0  0
 21 23  1  0  0  0
 21 22  1  0  0  0
M  END
> <SMILES>
[H]C2(COP(=O)(O)O)(OC([H])(N1C=NC=C1(N))C([H])(O)C2([H])(O))

> <NAME>
5-PHOSPHORIBOSYL-5-AMINOIMIDAZOLE

> <BioCyc_link>
http://biocyc.org/HUMAN/NEW-IMAGE?object=5-PHOSPHORIBOSYL-5-AMINOIMIDAZOLE

> <BioCyc_name_HTML>
5-aminoimidazole

> <CAS>
25635-88-5

> <KEGG_ID>
C03373

> <toxTree.tree.cramer.CramerTreeResult>


> <FORMULA>


> <toxTree.tree.cramer.CramerRules>


$$$$
CPD-609
 OpenBabel30120812303D

 63 68  0  0  0  0  0  0  0  0999 V2000
    1.0000    0.0000    0.0000 H   0  0  0  0  0
    2.5000    0.0000    0.0000 C   0  0  0  0  0
    2.9034    0.1217   -1.4396 C   0  0  0  0  0
    4.3999    0.1302   -1.5413 O   0  0  0  0  0
    4.8033    0.2519   -2.9809 P   0  0  0  0  0
    4.2639   -0.9208   -3.7449 O   0  0  0  0  0
    4.2352    1.5066   -3.5751 O   0  0  0  0  0
    6.2998    0.2605   -3.0825 O   0  0  0  0  0
    6.7032    0.3821   -4.5222 P   0  0  0  0  0
    6.1638   -0.7906   -5.2862 O   0  0  0  0  0
    6.1351    1.6368   -5.1164 O   0  0  0  0  0
    8.1997    0.3907   -4.6238 O   0  0  0  0  0
    8.6031    0.5124   -6.0634 P   0  0  0  0  0
    8.0637   -0.6604   -6.8274 O   0  0  0  0  0
    8.0350    1.7670   -6.6577 O   0  0  0  0  0
   10.0996    0.5210   -6.1651 O   0  0  0  0  0
   10.5030    0.6426   -7.6047 P   0  0  0  0  0
    9.9636   -0.5301   -8.3687 O   0  0  0  0  0
    9.9349    1.8973   -8.1989 O   0  0  0  0  0
   11.9995    0.6512   -7.7064 O   0  0  0  0  0
   12.4029    0.7729   -9.1460 C   0  0  0  0  0
   13.8994    0.7815   -9.2476 C   0  0  0  0  0
   14.2037    0.9184  -10.7100 H   0  0  0  0  0
   14.5110    1.9304   -8.4088 O   0  0  0  0  0
   15.9639    1.4401   -8.1697 C   0  0  0  0  0
   16.6130    2.1239   -7.0030 H   0  0  0  0  0
   16.8392    1.7404   -9.3501 N   0  0  0  0  0
   17.4943    0.8424  -10.1031 C   0  0  0  0  0
   18.1766    1.4965  -11.1367 N   0  0  0  0  0
   17.9558    2.7915  -11.0391 C   0  0  0  0  0
   18.3733    3.9732  -11.7939 C   0  0  0  0  0
   19.2607    3.8569  -12.9976 O   0  0  0  0  0
   17.9164    5.2022  -11.3524 N   0  0  0  0  0
   17.0842    5.2852  -10.2413 C   0  0  0  0  0
   16.6039    6.6396   -9.8112 N   0  0  0  0  0
   16.6994    4.2429   -9.5527 N   0  0  0  0  0
   17.0799    2.9948   -9.8753 C   0  0  0  0  0
   15.8199   -0.0810   -7.9540 C   0  0  0  0  0
   15.7929   -0.4160   -6.4921 H   0  0  0  0  0
   16.9866   -0.8152   -8.5455 O   0  0  0  0  0
   14.5072   -0.4994   -8.6394 C   0  0  0  0  0
   13.5641   -1.1259   -7.6555 H   0  0  0  0  0
   14.7661   -1.5231   -9.7047 O   0  0  0  0  0
    3.0599    1.1537    0.8679 O   0  0  0  0  0
    4.4904    0.6582    1.2094 C   0  0  0  0  0
    5.0630    1.3496    2.4111 H   0  0  0  0  0
    5.4454    0.9430    0.0883 N   0  0  0  0  0
    6.1375    0.0329   -0.6155 C   0  0  0  0  0
    6.9010    0.6737   -1.5995 N   0  0  0  0  0
    6.6943    1.9723   -1.5194 C   0  0  0  0  0
    7.1824    3.1454   -2.2447 C   0  0  0  0  0
    8.1503    3.0122   -3.3829 O   0  0  0  0  0
    6.7152    4.3825   -1.8381 N   0  0  0  0  0
    5.8084    4.4812   -0.7884 C   0  0  0  0  0
    5.3204    5.8440   -0.3949 N   0  0  0  0  0
    5.3597    3.4468   -0.1271 N   0  0  0  0  0
    5.7422    2.1921   -0.4204 C   0  0  0  0  0
    4.3235   -0.8601    1.4286 C   0  0  0  0  0
    4.1957   -1.1812    2.8882 H   0  0  0  0  0
    5.5233   -1.6057    0.9241 O   0  0  0  0  0
    3.0578   -1.2782    0.6595 C   0  0  0  0  0
    2.0467   -1.8906    1.5829 H   0  0  0  0  0
    3.3824   -2.3132   -0.3765 O   0  0  0  0  0
  1  2  1  0  0  0
  2 61  1  0  0  0
  2 44  1  0  0  0
  2  3  1  0  0  0
  3  4  1  0  0  0
  4  5  1  0  0  0
  5  8  1  0  0  0
  5  7  1  0  0  0
  5  6  2  0  0  0
  8  9  1  0  0  0
  9 12  1  0  0  0
  9 11  1  0  0  0
  9 10  2  0  0  0
 12 13  1  0  0  0
 13 16  1  0  0  0
 13 15  1  0  0  0
 13 14  2  0  0  0
 16 17  1  0  0  0
 17 20  1  0  0  0
 17 19  1  0  0  0
 17 18  2  0  0  0
 20 21  1  0  0  0
 21 22  1  0  0  0
 22 41  1  0  0  0
 22 24  1  0  0  0
 22 23  1  0  0  0
 24 25  1  0  0  0
 25 38  1  0  0  0
 25 27  1  0  0  0
 25 26  1  0  0  0
 27 37  1  0  0  0
 27 28  1  0  0  0
 28 29  2  0  0  0
 29 30  1  0  0  0
 30 37  2  0  0  0
 30 31  1  0  0  0
 31 33  1  0  0  0
 31 32  2  0  0  0
 33 34  1  0  0  0
 34 36  2  0  0  0
 34 35  1  0  0  0
 36 37  1  0  0  0
 38 41  1  0  0  0
 38 40  1  0  0  0
 38 39  1  0  0  0
 41 43  1  0  0  0
 41 42  1  0  0  0
 44 45  1  0  0  0
 45 58  1  0  0  0
 45 47  1  0  0  0
 45 46  1  0  0  0
 47 57  1  0  0  0
 47 48  1  0  0  0
 48 49  2  0  0  0
 49 50  1  0  0  0
 50 57  2  0  0  0
 50 51  1  0  0  0
 51 53  1  0  0  0
 51 52  2  0  0  0
 53 54  1  0  0  0
 54 56  2  0  0  0
 54 55  1  0  0  0
 56 57  1  0  0  0
 58 61  1  0  0  0
 58 60  1  0  0  0
 58 59  1  0  0  0
 61 63  1  0  0  0
 61 62  1  0  0  0
M  END
> <SMILES>
[H]C6(COP(=O)(O)OP(=O)(O)OP(=O)(O)OP(=O)(O)OCC3([H])(OC([H])(N2C=NC=1C(=O)NC(N)=NC=12)C([H])(O)C3([H])(O)))(OC([H])(N5C=NC=4C(=O)NC(N)=NC=45)C([H])(O)C6([H])(O))

> <NAME>
CPD-609

> <BioCyc_link>
http://biocyc.org/HUMAN/NEW-IMAGE?object=CPD-609

> <BioCyc_name_HTML>
P1,P4-bis(5'-guanosyl)

> <CAS>


> <KEGG_ID>
C01261

> <toxTree.tree.cramer.CramerTreeResult>


> <FORMULA>


> <toxTree.tree.cramer.CramerRules>


$$$$
ADENOSINE5TRIPHOSPHO5ADENOSINE
 OpenBabel30120812303D

 57 62  0  0  0  0  0  0  0  0999 V2000
    1.0000    0.0000    0.0000 H   0  0  0  0  0
    2.5000    0.0000    0.0000 C   0  0  0  0  0
    2.9034    0.1217   -1.4396 C   0  0  0  0  0
    4.3999    0.1302   -1.5413 O   0  0  0  0  0
    4.8033    0.2519   -2.9809 P   0  0  0  0  0
    4.2639   -0.9208   -3.7449 O   0  0  0  0  0
    4.2352    1.5066   -3.5751 O   0  0  0  0  0
    6.2998    0.2605   -3.0825 O   0  0  0  0  0
    6.7032    0.3821   -4.5222 P   0  0  0  0  0
    6.1638   -0.7906   -5.2862 O   0  0  0  0  0
    6.1351    1.6368   -5.1164 O   0  0  0  0  0
    8.1997    0.3907   -4.6238 O   0  0  0  0  0
    8.6031    0.5124   -6.0634 P   0  0  0  0  0
    8.0637   -0.6604   -6.8274 O   0  0  0  0  0
    8.0350    1.7670   -6.6577 O   0  0  0  0  0
   10.0996    0.5210   -6.1651 O   0  0  0  0  0
   10.5030    0.6426   -7.6047 C   0  0  0  0  0
   11.9995    0.6512   -7.7064 C   0  0  0  0  0
   12.3038    0.7882   -9.1688 H   0  0  0  0  0
   12.6111    1.8002   -6.8675 O   0  0  0  0  0
   14.0639    1.3099   -6.6284 C   0  0  0  0  0
   14.7131    1.9936   -5.4617 H   0  0  0  0  0
   14.9393    1.6102   -7.8089 N   0  0  0  0  0
   15.5944    0.7121   -8.5618 C   0  0  0  0  0
   16.2767    1.3663   -9.5954 N   0  0  0  0  0
   16.0559    2.6613   -9.4978 C   0  0  0  0  0
   16.4734    3.8429  -10.2526 C   0  0  0  0  0
   17.3608    3.7267  -11.4563 N   0  0  0  0  0
   16.0165    5.0720   -9.8112 N   0  0  0  0  0
   15.1843    5.1550   -8.7001 C   0  0  0  0  0
   14.7995    4.1126   -8.0115 N   0  0  0  0  0
   15.1800    2.8646   -8.3340 C   0  0  0  0  0
   13.9200   -0.2113   -6.4127 C   0  0  0  0  0
   13.8930   -0.5463   -4.9508 H   0  0  0  0  0
   15.0867   -0.9454   -7.0042 O   0  0  0  0  0
   12.6072   -0.6296   -7.0982 C   0  0  0  0  0
   11.6641   -1.2562   -6.1143 H   0  0  0  0  0
   12.8661   -1.6534   -8.1635 O   0  0  0  0  0
    3.0599    1.1537    0.8679 O   0  0  0  0  0
    4.4904    0.6582    1.2094 C   0  0  0  0  0
    5.0630    1.3496    2.4111 H   0  0  0  0  0
    5.4454    0.9430    0.0883 N   0  0  0  0  0
    6.1375    0.0329   -0.6155 C   0  0  0  0  0
    6.9010    0.6737   -1.5995 N   0  0  0  0  0
    6.6943    1.9723   -1.5194 C   0  0  0  0  0
    7.1824    3.1454   -2.2447 C   0  0  0  0  0
    8.1503    3.0122   -3.3829 N   0  0  0  0  0
    6.7152    4.3825   -1.8381 N   0  0  0  0  0
    5.8084    4.4812   -0.7884 C   0  0  0  0  0
    5.3597    3.4468   -0.1271 N   0  0  0  0  0
    5.7422    2.1921   -0.4204 C   0  0  0  0  0
    4.3235   -0.8601    1.4286 C   0  0  0  0  0
    4.1957   -1.1812    2.8882 H   0  0  0  0  0
    5.5233   -1.6057    0.9241 O   0  0  0  0  0
    3.0578   -1.2782    0.6595 C   0  0  0  0  0
    2.0467   -1.8906    1.5829 H   0  0  0  0  0
    3.3824   -2.3132   -0.3765 O   0  0  0  0  0
  1  2  1  0  0  0
  2 55  1  0  0  0
  2 39  1  0  0  0
  2  3  1  0  0  0
  3  4  1  0  0  0
  4  5  1  0  0  0
  5  8  1  0  0  0
  5  7  1  0  0  0
  5  6  2  0  0  0
  8  9  1  0  0  0
  9 12  1  0  0  0
  9 11  1  0  0  0
  9 10  2  0  0  0
 12 13  1  0  0  0
 13 16  1  0  0  0
 13 15  1  0  0  0
 13 14  2  0  0  0
 16 17  1  0  0  0
 17 18  1  0  0  0
 18 36  1  0  0  0
 18 20  1  0  0  0
 18 19  1  0  0  0
 20 21  1  0  0  0
 21 33  1  0  0  0
 21 23  1  0  0  0
 21 22  1  0  0  0
 23 32  1  0  0  0
 23 24  1  0  0  0
 24 25  2  0  0  0
 25 26  1  0  0  0
 26 32  2  0  0  0
 26 27  1  0  0  0
 27 29  2  0  0  0
 27 28  1  0  0  0
 29 30  1  0  0  0
 30 31  2  0  0  0
 31 32  1  0  0  0
 33 36  1  0  0  0
 33 35  1  0  0  0
 33 34  1  0  0  0
 36 38  1  0  0  0
 36 37  1  0  0  0
 39 40  1  0  0  0
 40 52  1  0  0  0
 40 42  1  0  0  0
 40 41  1  0  0  0
 42 51  1  0  0  0
 42 43  1  0  0  0
 43 44  2  0  0  0
 44 45  1  0  0  0
 45 51  2  0  0  0
 45 46  1  0  0  0
 46 48  2  0  0  0
 46 47  1  0  0  0
 48 49  1  0  0  0
 49 50  2  0  0  0
 50 51  1  0  0  0
 52 55  1  0  0  0
 52 54  1  0  0  0
 52 53  1  0  0  0
 55 57  1  0  0  0
 55 56  1  0  0  0
M  END
> <SMILES>
[H]C6(COP(=O)(O)OP(=O)(O)OP(=O)(O)OCC3([H])(OC([H])(N2C=NC=1C(N)=NC=NC=12)C([H])(O)C3([H])(O)))(OC([H])(N5C=NC=4C(N)=NC=NC=45)C([H])(O)C6([H])(O))

> <NAME>
ADENOSINE5TRIPHOSPHO5ADENOSINE

> <BioCyc_link>
http://biocyc.org/HUMAN/NEW-IMAGE?object=ADENOSINE5TRIPHOSPHO5ADENOSINE

> <BioCyc_name_HTML>
5',5'-diadenosine

> <CAS>


> <KEGG_ID>
C06197

> <toxTree.tree.cramer.CramerTreeResult>


> <FORMULA>


> <toxTree.tree.cramer.CramerRules>


$$$$
PHOSPHORIBOSYL-CARBOXY-AMINOIMIDAZOLE
 OpenBabel30120812303D

 26 27  0  0  0  0  0  0  0  0999 V2000
    1.0000    0.0000    0.0000 H   0  0  0  0  0
    2.5000    0.0000    0.0000 C   0  0  0  0  0
    2.9034    0.1217   -1.4396 C   0  0  0  0  0
    4.3999    0.1302   -1.5413 O   0  0  0  0  0
    4.8033    0.2519   -2.9809 P   0  0  0  0  0
    4.2639   -0.9208   -3.7449 O   0  0  0  0  0
    4.2352    1.5066   -3.5751 O   0  0  0  0  0
    6.2998    0.2605   -3.0825 O   0  0  0  0  0
    3.0599    1.1537    0.8679 O   0  0  0  0  0
    4.4904    0.6582    1.2094 C   0  0  0  0  0
    5.0630    1.3496    2.4111 H   0  0  0  0  0
    5.4454    0.9430    0.0883 N   0  0  0  0  0
    5.7404    2.1654   -0.4169 C   0  0  0  0  0
    6.6263    1.9503   -1.4196 N   0  0  0  0  0
    6.8270    0.6628   -1.4925 C   0  0  0  0  0
    7.7409   -0.0152   -2.4698 C   0  0  0  0  0
    8.5112    0.7998   -3.4660 O   0  0  0  0  0
    7.8844   -1.5082   -2.4509 O   0  0  0  0  0
    6.1220    0.0639   -0.5992 C   0  0  0  0  0
    6.0833   -1.4196   -0.3806 N   0  0  0  0  0
    4.3235   -0.8601    1.4286 C   0  0  0  0  0
    4.1957   -1.1812    2.8882 H   0  0  0  0  0
    5.5233   -1.6057    0.9241 O   0  0  0  0  0
    3.0578   -1.2782    0.6595 C   0  0  0  0  0
    2.0467   -1.8906    1.5829 H   0  0  0  0  0
    3.3824   -2.3132   -0.3765 O   0  0  0  0  0
  1  2  1  0  0  0
  2 24  1  0  0  0
  2  9  1  0  0  0
  2  3  1  0  0  0
  3  4  1  0  0  0
  4  5  1  0  0  0
  5  8  1  0  0  0
  5  7  1  0  0  0
  5  6  2  0  0  0
  9 10  1  0  0  0
 10 21  1  0  0  0
 10 12  1  0  0  0
 10 11  1  0  0  0
 12 13  1  0  0  0
 12 19  1  0  0  0
 13 14  2  0  0  0
 14 15  1  0  0  0
 15 19  2  0  0  0
 15 16  1  0  0  0
 16 18  1  0  0  0
 16 17  2  0  0  0
 19 20  1  0  0  0
 21 24  1  0  0  0
 21 23  1  0  0  0
 21 22  1  0  0  0
 24 26  1  0  0  0
 24 25  1  0  0  0
M  END
> <SMILES>
[H]C2(COP(=O)(O)O)(OC([H])(N1C=NC(C(=O)O)=C1(N))C([H])(O)C2([H])(O))

> <NAME>
PHOSPHORIBOSYL-CARBOXY-AMINOIMIDAZOLE

> <BioCyc_link>
http://biocyc.org/HUMAN/NEW-IMAGE?object=PHOSPHORIBOSYL-CARBOXY-AMINOIMIDAZOLE

> <BioCyc_name_HTML>
4-carboxyaminoimidazole

> <CAS>


> <KEGG_ID>
C04751

> <toxTree.tree.cramer.CramerTreeResult>


> <FORMULA>


> <toxTree.tree.cramer.CramerRules>


$$$$
PHOSPHORIBOSYL-FORMAMIDO-CARBOXAMIDE
 OpenBabel30120812303D

 28 29  0  0  0  0  0  0  0  0999 V2000
    1.0000    0.0000    0.0000 H   0  0  0  0  0
    2.5000    0.0000    0.0000 C   0  0  0  0  0
    2.9034    0.1217   -1.4396 C   0  0  0  0  0
    4.3999    0.1302   -1.5413 O   0  0  0  0  0
    4.8033    0.2519   -2.9809 P   0  0  0  0  0
    4.2639   -0.9208   -3.7449 O   0  0  0  0  0
    4.2352    1.5066   -3.5751 O   0  0  0  0  0
    6.2998    0.2605   -3.0825 O   0  0  0  0  0
    3.0599    1.1537    0.8679 O   0  0  0  0  0
    4.4904    0.6582    1.2094 C   0  0  0  0  0
    5.0630    1.3496    2.4111 H   0  0  0  0  0
    5.4454    0.9430    0.0883 N   0  0  0  0  0
    5.7404    2.1654   -0.4169 C   0  0  0  0  0
    6.6263    1.9503   -1.4196 N   0  0  0  0  0
    6.8270    0.6628   -1.4925 C   0  0  0  0  0
    7.7409   -0.0152   -2.4698 C   0  0  0  0  0
    8.5112    0.7998   -3.4660 N   0  0  0  0  0
    7.8844   -1.5082   -2.4509 O   0  0  0  0  0
    6.1220    0.0639   -0.5992 C   0  0  0  0  0
    6.0833   -1.4196   -0.3806 N   0  0  0  0  0
    5.2164   -1.9962    0.6992 C   0  0  0  0  0
    5.1776   -3.4797    0.9178 O   0  0  0  0  0
    4.3235   -0.8601    1.4286 C   0  0  0  0  0
    4.1957   -1.1812    2.8882 H   0  0  0  0  0
    5.5233   -1.6057    0.9241 O   0  0  0  0  0
    3.0578   -1.2782    0.6595 C   0  0  0  0  0
    2.0467   -1.8906    1.5829 H   0  0  0  0  0
    3.3824   -2.3132   -0.3765 O   0  0  0  0  0
  1  2  1  0  0  0
  2 26  1  0  0  0
  2  9  1  0  0  0
  2  3  1  0  0  0
  3  4  1  0  0  0
  4  5  1  0  0  0
  5  8  1  0  0  0
  5  7  1  0  0  0
  5  6  2  0  0  0
  9 10  1  0  0  0
 10 23  1  0  0  0
 10 12  1  0  0  0
 10 11  1  0  0  0
 12 13  1  0  0  0
 12 19  1  0  0  0
 13 14  2  0  0  0
 14 15  1  0  0  0
 15 19  2  0  0  0
 15 16  1  0  0  0
 16 18  2  0  0  0
 16 17  1  0  0  0
 19 20  1  0  0  0
 20 21  1  0  0  0
 21 22  2  0  0  0
 23 26  1  0  0  0
 23 25  1  0  0  0
 23 24  1  0  0  0
 26 28  1  0  0  0
 26 27  1  0  0  0
M  END
> <SMILES>
[H]C2(COP(=O)(O)O)(OC([H])(N1C=NC(C(N)=O)=C1(NC=O))C([H])(O)C2([H])(O))

> <NAME>
PHOSPHORIBOSYL-FORMAMIDO-CARBOXAMIDE

> <BioCyc_link>
http://biocyc.org/HUMAN/NEW-IMAGE?object=PHOSPHORIBOSYL-FORMAMIDO-CARBOXAMIDE

> <BioCyc_name_HTML>
phosphoribosyl-formamido-carboxamide

> <CAS>


> <KEGG_ID>
C04734

> <toxTree.tree.cramer.CramerTreeResult>


> <FORMULA>


> <toxTree.tree.cramer.CramerRules>


$$$$
FRUCTOSE-16-DIPHOSPHATE
 OpenBabel30120812303D

 23 23  0  0  0  0  0  0  0  0999 V2000
    1.0000    0.0000    0.0000 H   0  0  0  0  0
    2.5000    0.0000    0.0000 C   0  0  0  0  0
    2.9034    0.1217   -1.4396 O   0  0  0  0  0
    3.0599    1.1537    0.8679 C   0  0  0  0  0
    3.0416    2.4828    0.1728 H   0  0  0  0  0
    2.2387    1.3587    2.1063 O   0  0  0  0  0
    4.4904    0.6582    1.2094 C   0  0  0  0  0
    5.0630    1.3496    2.4111 O   0  0  0  0  0
    5.4454    0.9430    0.0883 C   0  0  0  0  0
    6.8129    0.4496    0.4579 O   0  0  0  0  0
    7.7679    0.7344   -0.6632 P   0  0  0  0  0
    7.3040    0.0219   -1.8990 O   0  0  0  0  0
    7.8069    2.2060   -0.9510 O   0  0  0  0  0
    9.1354    0.2411   -0.2936 O   0  0  0  0  0
    4.3235   -0.8601    1.4286 O   0  0  0  0  0
    3.0578   -1.2782    0.6595 C   0  0  0  0  0
    2.0467   -1.8906    1.5829 H   0  0  0  0  0
    3.3824   -2.3132   -0.3765 C   0  0  0  0  0
    2.1309   -2.6995   -1.1076 O   0  0  0  0  0
    2.4555   -3.7345   -2.1437 P   0  0  0  0  0
    3.4404   -3.1630   -3.1200 O   0  0  0  0  0
    3.0728   -4.9396   -1.4982 O   0  0  0  0  0
    1.2040   -4.1208   -2.8748 O   0  0  0  0  0
  1  2  1  0  0  0
  2 16  1  0  0  0
  2  4  1  0  0  0
  2  3  1  0  0  0
  4  7  1  0  0  0
  4  6  1  0  0  0
  4  5  1  0  0  0
  7 15  1  0  0  0
  7  9  1  0  0  0
  7  8  1  0  0  0
  9 10  1  0  0  0
 10 11  1  0  0  0
 11 14  1  0  0  0
 11 13  1  0  0  0
 11 12  2  0  0  0
 15 16  1  0  0  0
 16 18  1  0  0  0
 16 17  1  0  0  0
 18 19  1  0  0  0
 19 20  1  0  0  0
 20 23  1  0  0  0
 20 22  1  0  0  0
 20 21  2  0  0  0
M  END
> <SMILES>
[H]C1(O)(C([H])(O)C(O)(COP(=O)(O)O)OC1([H])(COP(=O)(O)O))

> <NAME>
FRUCTOSE-16-DIPHOSPHATE

> <BioCyc_link>
http://biocyc.org/HUMAN/NEW-IMAGE?object=FRUCTOSE-16-DIPHOSPHATE

> <BioCyc_name_HTML>
fructose-1,6-bisphosphate

> <CAS>
488-69-7

> <KEGG_ID>
C00354

> <toxTree.tree.cramer.CramerTreeResult>


> <FORMULA>


> <toxTree.tree.cramer.CramerRules>


$$$$
UDP-GLUCURONATE
 OpenBabel30120812303D

 46 48  0  0  0  0  0  0  0  0999 V2000
    1.0000    0.0000    0.0000 H   0  0  0  0  0
    2.5000    0.0000    0.0000 C   0  0  0  0  0
    2.9034    0.1217   -1.4396 C   0  0  0  0  0
    4.3999    0.1302   -1.5413 O   0  0  0  0  0
    4.8033    0.2519   -2.9809 P   0  0  0  0  0
    4.2639   -0.9208   -3.7449 O   0  0  0  0  0
    4.2352    1.5066   -3.5751 O   0  0  0  0  0
    6.2998    0.2605   -3.0825 O   0  0  0  0  0
    6.7032    0.3821   -4.5222 P   0  0  0  0  0
    6.1638   -0.7906   -5.2862 O   0  0  0  0  0
    6.1351    1.6368   -5.1164 O   0  0  0  0  0
    8.1997    0.3907   -4.6238 O   0  0  0  0  0
    8.6031    0.5124   -6.0634 C   0  0  0  0  0
   10.0808    0.2727   -6.1572 H   0  0  0  0  0
    7.8649   -0.5251   -6.9126 O   0  0  0  0  0
    6.4611   -0.2593   -6.8746 C   0  0  0  0  0
    6.0742   -0.2470   -5.4254 H   0  0  0  0  0
    5.7289   -1.3335   -7.6228 C   0  0  0  0  0
    6.4919   -2.4554   -8.2624 O   0  0  0  0  0
    4.2336   -1.2858   -7.7314 O   0  0  0  0  0
    6.0954    1.0189   -7.3979 C   0  0  0  0  0
    4.6057    1.1764   -7.3207 H   0  0  0  0  0
    6.5091    1.1294   -8.8355 O   0  0  0  0  0
    6.7621    2.1189   -6.5684 C   0  0  0  0  0
    6.2694    2.0441   -5.1535 H   0  0  0  0  0
    6.4105    3.4701   -7.1165 O   0  0  0  0  0
    8.2801    1.9145   -6.5903 C   0  0  0  0  0
    8.9358    2.9411   -5.7151 H   0  0  0  0  0
    8.8087    2.0822   -7.9840 O   0  0  0  0  0
    3.0599    1.1537    0.8679 O   0  0  0  0  0
    4.4904    0.6582    1.2094 C   0  0  0  0  0
    5.0630    1.3496    2.4111 H   0  0  0  0  0
    5.4454    0.9430    0.0883 N   0  0  0  0  0
    6.0963   -0.0929   -0.5481 C   0  0  0  0  0
    6.9730    0.1781   -1.6005 C   0  0  0  0  0
    7.1798    1.4979   -2.0051 C   0  0  0  0  0
    8.1197    1.7993   -3.1346 O   0  0  0  0  0
    6.5181    2.5240   -1.3642 N   0  0  0  0  0
    5.6502    2.2487   -0.3216 C   0  0  0  0  0
    4.9291    3.3697    0.3665 O   0  0  0  0  0
    4.3235   -0.8601    1.4286 C   0  0  0  0  0
    4.1957   -1.1812    2.8882 H   0  0  0  0  0
    5.5233   -1.6057    0.9241 O   0  0  0  0  0
    3.0578   -1.2782    0.6595 C   0  0  0  0  0
    2.0467   -1.8906    1.5829 H   0  0  0  0  0
    3.3824   -2.3132   -0.3765 O   0  0  0  0  0
  1  2  1  0  0  0
  2 44  1  0  0  0
  2 30  1  0  0  0
  2  3  1  0  0  0
  3  4  1  0  0  0
  4  5  1  0  0  0
  5  8  1  0  0  0
  5  7  1  0  0  0
  5  6  2  0  0  0
  8  9  1  0  0  0
  9 12  1  0  0  0
  9 11  1  0  0  0
  9 10  2  0  0  0
 12 13  1  0  0  0
 13 27  1  0  0  0
 13 15  1  0  0  0
 13 14  1  0  0  0
 15 16  1  0  0  0
 16 21  1  0  0  0
 16 18  1  0  0  0
 16 17  1  0  0  0
 18 20  1  0  0  0
 18 19  2  0  0  0
 21 24  1  0  0  0
 21 23  1  0  0  0
 21 22  1  0  0  0
 24 27  1  0  0  0
 24 26  1  0  0  0
 24 25  1  0  0  0
 27 29  1  0  0  0
 27 28  1  0  0  0
 30 31  1  0  0  0
 31 41  1  0  0  0
 31 33  1  0  0  0
 31 32  1  0  0  0
 33 39  1  0  0  0
 33 34  1  0  0  0
 34 35  2  0  0  0
 35 36  1  0  0  0
 36 38  1  0  0  0
 36 37  2  0  0  0
 38 39  1  0  0  0
 39 40  2  0  0  0
 41 44  1  0  0  0
 41 43  1  0  0  0
 41 42  1  0  0  0
 44 46  1  0  0  0
 44 45  1  0  0  0
M  END
> <SMILES>
[H]C3(COP(=O)(O)OP(=O)(O)OC1([H])(OC([H])(C(=O)O)C([H])(O)C([H])(O)C1([H])(O)))(OC([H])(N2C=CC(=O)NC2(=O))C([H])(O)C3([H])(O))

> <NAME>
UDP-GLUCURONATE

> <BioCyc_link>
http://biocyc.org/HUMAN/NEW-IMAGE?object=UDP-GLUCURONATE

> <BioCyc_name_HTML>
UDP-D-glucuronate

> <CAS>
2616-64-0

> <KEGG_ID>
C00167

> <toxTree.tree.cramer.CramerTreeResult>


> <FORMULA>


> <toxTree.tree.cramer.CramerRules>


$$$$
GDP-MANNOSE_1
 OpenBabel30120812303D

 48 51  0  0  0  0  0  0  0  0999 V2000
    1.0000    0.0000    0.0000 H   0  0  0  0  0
    2.5000    0.0000    0.0000 C   0  0  0  0  0
    2.9688    0.1628    1.4155 C   0  0  0  0  0
    4.4684    0.1666    1.4490 O   0  0  0  0  0
    3.0315   -1.3200   -0.5633 O   0  0  0  0  0
    2.6379   -1.4463   -1.9315 C   0  0  0  0  0
    1.1440   -1.3129   -1.9536 H   0  0  0  0  0
    3.0711   -2.7838   -2.4545 O   0  0  0  0  0
    2.6585   -2.9175   -3.8904 P   0  0  0  0  0
    1.1654   -2.8106   -3.9864 O   0  0  0  0  0
    3.2661   -1.8178   -4.7099 O   0  0  0  0  0
    3.0918   -4.2549   -4.4134 O   0  0  0  0  0
    2.6792   -4.3886   -5.8493 P   0  0  0  0  0
    1.1861   -4.2818   -5.9453 O   0  0  0  0  0
    3.2867   -3.2889   -6.6688 O   0  0  0  0  0
    3.1125   -5.7261   -6.3724 O   0  0  0  0  0
    2.6998   -5.8598   -7.8083 C   0  0  0  0  0
    3.1331   -7.1972   -8.3313 C   0  0  0  0  0
    3.3235   -7.0019   -9.8063 H   0  0  0  0  0
    4.3834   -7.6235   -7.5234 O   0  0  0  0  0
    4.4440   -9.1539   -7.7740 C   0  0  0  0  0
    5.2592   -9.8707   -6.7389 H   0  0  0  0  0
    5.0993   -9.4633   -9.0874 N   0  0  0  0  0
    5.2109  -10.6839   -9.6353 C   0  0  0  0  0
    5.8283  -10.5872  -10.8888 N   0  0  0  0  0
    6.1033   -9.3219  -11.1309 C   0  0  0  0  0
    6.7274   -8.5902  -12.2334 C   0  0  0  0  0
    7.2230   -9.2991  -13.4589 O   0  0  0  0  0
    6.8419   -7.2179  -12.0998 N   0  0  0  0  0
    6.3641   -6.5801  -10.9602 C   0  0  0  0  0
    6.4987   -5.0889  -10.8695 N   0  0  0  0  0
    5.8036   -7.2142   -9.9639 N   0  0  0  0  0
    5.6397   -8.5482   -9.9693 C   0  0  0  0  0
    2.9660   -9.5976   -7.7693 C   0  0  0  0  0
    2.5733  -10.1429   -6.4283 H   0  0  0  0  0
    2.7362  -10.6936   -8.7672 O   0  0  0  0  0
    2.1329   -8.3532   -8.1235 C   0  0  0  0  0
    1.1591   -8.0300   -7.0293 H   0  0  0  0  0
    1.3267   -8.5889   -9.3663 O   0  0  0  0  0
    3.1450   -0.4160   -2.7815 C   0  0  0  0  0
    2.6818   -0.6625   -4.1867 H   0  0  0  0  0
    4.6449   -0.4238   -2.7694 O   0  0  0  0  0
    2.6181    0.9406   -2.3079 C   0  0  0  0  0
    1.1216    0.9571   -2.4091 H   0  0  0  0  0
    3.1588    2.0403   -3.1730 O   0  0  0  0  0
    3.0321    1.1590   -0.8492 C   0  0  0  0  0
    2.4525    2.4503   -0.3527 H   0  0  0  0  0
    4.5256    1.2439   -0.7383 O   0  0  0  0  0
  1  2  1  0  0  0
  2 46  1  0  0  0
  2  5  1  0  0  0
  2  3  1  0  0  0
  3  4  1  0  0  0
  5  6  1  0  0  0
  6 40  1  0  0  0
  6  8  1  0  0  0
  6  7  1  0  0  0
  8  9  1  0  0  0
  9 12  1  0  0  0
  9 11  1  0  0  0
  9 10  2  0  0  0
 12 13  1  0  0  0
 13 16  1  0  0  0
 13 15  1  0  0  0
 13 14  2  0  0  0
 16 17  1  0  0  0
 17 18  1  0  0  0
 18 37  1  0  0  0
 18 20  1  0  0  0
 18 19  1  0  0  0
 20 21  1  0  0  0
 21 34  1  0  0  0
 21 23  1  0  0  0
 21 22  1  0  0  0
 23 33  1  0  0  0
 23 24  1  0  0  0
 24 25  2  0  0  0
 25 26  1  0  0  0
 26 33  2  0  0  0
 26 27  1  0  0  0
 27 29  1  0  0  0
 27 28  2  0  0  0
 29 30  1  0  0  0
 30 32  2  0  0  0
 30 31  1  0  0  0
 32 33  1  0  0  0
 34 37  1  0  0  0
 34 36  1  0  0  0
 34 35  1  0  0  0
 37 39  1  0  0  0
 37 38  1  0  0  0
 40 43  1  0  0  0
 40 42  1  0  0  0
 40 41  1  0  0  0
 43 46  1  0  0  0
 43 45  1  0  0  0
 43 44  1  0  0  0
 46 48  1  0  0  0
 46 47  1  0  0  0
M  END
> <SMILES>
[H]C4(CO)(OC([H])(OP(=O)(O)OP(=O)(O)OCC3([H])(OC([H])(N2C=NC=1C(=O)NC(N)=NC=12)C([H])(O)C3([H])(O)))C([H])(O)C([H])(O)C4([H])(O))

> <NAME>
GDP-MANNOSE_1

> <BioCyc_link>
http://biocyc.org/HUMAN/NEW-IMAGE?object=GDP-MANNOSE_1

> <BioCyc_name_HTML>
GDP-&alpha;-D-mannose

> <CAS>


> <KEGG_ID>
C00096

> <toxTree.tree.cramer.CramerTreeResult>


> <FORMULA>


> <toxTree.tree.cramer.CramerRules>


$$$$
ACETYL-P
 OpenBabel30120812303D

  8  7  0  0  0  0  0  0  0  0999 V2000
    1.0000    0.0000    0.0000 C   0  0  0  0  0
    2.5000    0.0000    0.0000 C   0  0  0  0  0
    3.2500   -1.2990    0.0000 O   0  0  0  0  0
    3.2500    1.2990    0.0000 O   0  0  0  0  0
    4.7500    1.2990    0.0000 P   0  0  0  0  0
    5.2431    0.6013    1.2329 O   0  0  0  0  0
    5.2693    0.5642   -1.2002 O   0  0  0  0  0
    5.2507    2.7130    0.0000 O   0  0  0  0  0
  1  2  1  0  0  0
  2  4  1  0  0  0
  2  3  2  0  0  0
  4  5  1  0  0  0
  5  8  1  0  0  0
  5  7  1  0  0  0
  5  6  2  0  0  0
M  END
> <SMILES>
CC(=O)OP(=O)(O)O

> <NAME>
ACETYL-P

> <BioCyc_link>
http://biocyc.org/HUMAN/NEW-IMAGE?object=ACETYL-P

> <BioCyc_name_HTML>
acetylphosphate

> <CAS>
19926-71-7

> <KEGG_ID>
C00227

> <toxTree.tree.cramer.CramerTreeResult>


> <FORMULA>


> <toxTree.tree.cramer.CramerRules>


$$$$
23-DIPHOSPHOGLYCERATE
 OpenBabel30120812303D

 16 15  0  0  0  0  0  0  0  0999 V2000
    1.0000    0.0000    0.0000 H   0  0  0  0  0
    2.5000    0.0000    0.0000 C   0  0  0  0  0
    2.9931   -0.6977    1.2329 C   0  0  0  0  0
    2.4869    0.0185    2.4498 O   0  0  0  0  0
    2.9800   -0.6792    3.6827 P   0  0  0  0  0
    2.4662   -2.0884    3.6906 O   0  0  0  0  0
    4.4794   -0.7213    3.6911 O   0  0  0  0  0
    2.4738    0.0370    4.8996 O   0  0  0  0  0
    3.0193   -0.7348   -1.2002 O   0  0  0  0  0
    2.5089   -2.1452   -1.1833 P   0  0  0  0  0
    2.9920   -2.8295    0.0610 O   0  0  0  0  0
    1.0090   -2.1546   -1.1775 O   0  0  0  0  0
    3.0282   -2.8800   -2.3834 O   0  0  0  0  0
    3.0007    1.4140    0.0000 C   0  0  0  0  0
    2.0265    2.5546    0.0000 O   0  0  0  0  0
    4.4756    1.6873    0.0000 O   0  0  0  0  0
  1  2  1  0  0  0
  2 14  1  0  0  0
  2  9  1  0  0  0
  2  3  1  0  0  0
  3  4  1  0  0  0
  4  5  1  0  0  0
  5  8  1  0  0  0
  5  7  1  0  0  0
  5  6  2  0  0  0
  9 10  1  0  0  0
 10 13  1  0  0  0
 10 12  1  0  0  0
 10 11  2  0  0  0
 14 16  1  0  0  0
 14 15  2  0  0  0
M  END
> <SMILES>
[H]C(COP(=O)(O)O)(OP(=O)(O)O)C(=O)O

> <NAME>
23-DIPHOSPHOGLYCERATE

> <BioCyc_link>
http://biocyc.org/HUMAN/NEW-IMAGE?object=23-DIPHOSPHOGLYCERATE

> <BioCyc_name_HTML>
2,3-diphosphoglycerate

> <CAS>


> <KEGG_ID>
C01159

> <toxTree.tree.cramer.CramerTreeResult>


> <FORMULA>


> <toxTree.tree.cramer.CramerRules>


$$$$
L-GLUTAMATE-5-P
 OpenBabel30120812303D

 15 14  0  0  0  0  0  0  0  0999 V2000
    1.0000    0.0000    0.0000 H   0  0  0  0  0
    2.5000    0.0000    0.0000 C   0  0  0  0  0
    2.9931   -0.6977    1.2329 N   0  0  0  0  0
    3.0193   -0.7348   -1.2002 C   0  0  0  0  0
    2.5089   -2.1452   -1.1833 C   0  0  0  0  0
    3.0282   -2.8800   -2.3834 C   0  0  0  0  0
    3.9161   -2.1770   -3.3671 O   0  0  0  0  0
    2.6597   -4.3178   -2.6000 O   0  0  0  0  0
    3.1790   -5.0526   -3.8001 P   0  0  0  0  0
    2.6959   -4.3683   -5.0444 O   0  0  0  0  0
    4.6790   -5.0432   -3.8059 O   0  0  0  0  0
    2.6686   -6.4630   -3.7832 O   0  0  0  0  0
    3.0007    1.4140    0.0000 C   0  0  0  0  0
    2.0265    2.5546    0.0000 O   0  0  0  0  0
    4.4756    1.6873    0.0000 O   0  0  0  0  0
  1  2  1  0  0  0
  2 13  1  0  0  0
  2  4  1  0  0  0
  2  3  1  0  0  0
  4  5  1  0  0  0
  5  6  1  0  0  0
  6  8  1  0  0  0
  6  7  2  0  0  0
  8  9  1  0  0  0
  9 12  1  0  0  0
  9 11  1  0  0  0
  9 10  2  0  0  0
 13 15  1  0  0  0
 13 14  2  0  0  0
M  END
> <SMILES>
[H]C(N)(CCC(=O)OP(=O)(O)O)C(=O)O

> <NAME>
L-GLUTAMATE-5-P

> <BioCyc_link>
http://biocyc.org/HUMAN/NEW-IMAGE?object=L-GLUTAMATE-5-P

> <BioCyc_name_HTML>
L-glutamate-5-phosphate

> <CAS>


> <KEGG_ID>
C03287

> <toxTree.tree.cramer.CramerTreeResult>


> <FORMULA>


> <toxTree.tree.cramer.CramerRules>


$$$$
PROTOHEME
 OpenBabel30120812303D

 43 45  0  0  0  0  0  0  0  0999 V2000
    1.0000    0.0000    0.0000 C   0  0  0  0  0
    2.5000    0.0000    0.0000 C   0  0  0  0  0
    3.2500    1.2990    0.0000 C   0  0  0  0  0
    2.5781    2.4393   -0.0001 C   0  0  0  0  0
    1.0956    2.6680   -0.0004 C   0  0  0  0  0
    3.8762    3.6059    0.0001 C   0  0  0  0  0
    3.8637    5.1059   -0.0039 C   0  0  0  0  0
    2.5585    5.8450   -0.0090 C   0  0  0  0  0
    2.3848    7.1732   -0.0118 N   0  0  0  0  0
    1.0160    7.4059   -0.0103 C   0  0  0  0  0
    0.3261    8.7378   -0.0124 C   0  0  0  0  0
    1.1347   10.0012   -0.0167 C   0  0  0  0  0
    2.4492   10.1548   -0.0209 N   0  0  0  0  0
    2.9706   11.3063   -0.0242 C   0  0  0  0  0
    4.4628   11.4589   -0.0357 C   0  0  0  0  0
    5.3411   10.2429   -0.0434 C   0  0  0  0  0
    4.9452    8.9633   -0.0459 N   0  0  0  0  0
    6.0924    8.1812   -0.0473 C   0  0  0  0  0
    5.2569   -0.0153   -0.0065 C   0  0  0  0  0
    4.5140    1.2878    0.0001 C   0  0  0  0  0
    5.1941    2.4605    0.0063 N   0  0  0  0  0
    7.0831    9.0057   -0.0455 C   0  0  0  0  0
    8.5290    8.6066   -0.0402 C   0  0  0  0  0
    6.6573   10.2170   -0.0490 C   0  0  0  0  0
    7.5364   11.4323   -0.0582 C   0  0  0  0  0
    6.6842   12.6667   -0.0599 C   0  0  0  0  0
    7.5634   13.8821   -0.0691 C   0  0  0  0  0
    9.0555   13.7284   -0.0749 O   0  0  0  0  0
    6.9504   15.2511   -0.0724 O   0  0  0  0  0
    2.1730   12.4025   -0.0172 C   0  0  0  0  0
    2.5460   13.8554   -0.0111 C   0  0  0  0  0
    4.0401   13.9887   -0.0137 C   0  0  0  0  0
    4.4132   15.4415   -0.0076 C   0  0  0  0  0
    3.3415   16.4910   -0.0002 O   0  0  0  0  0
    5.8579   15.8449   -0.0088 O   0  0  0  0  0
    0.5925   11.6602   -0.0173 C   0  0  0  0  0
   -0.7844   12.2552   -0.0178 C   0  0  0  0  0
    0.4592    6.2434   -0.0067 C   0  0  0  0  0
   -1.0214    6.0034    0.0021 C   0  0  0  0  0
    1.3512    5.3199   -0.0116 C   0  0  0  0  0
    1.0587    3.8487   -0.0194 C   0  0  0  0  0
    2.1866    2.8598   -0.0248 C   0  0  0  0  0
    1.0000    0.0000    0.0000 Fe  0  0  0  0  0
  1  2  2  0  0  0
  2  3  1  0  0  0
  3  4  2  0  0  0
  3 20  1  0  0  0
  4  6  1  0  0  0
  4  5  1  0  0  0
  6 21  2  0  0  0
  6  7  1  0  0  0
  7  8  2  0  0  0
  8  9  1  0  0  0
  8 40  1  0  0  0
  9 10  1  0  0  0
 10 38  1  0  0  0
 10 11  2  0  0  0
 11 12  1  0  0  0
 12 13  2  0  0  0
 12 36  1  0  0  0
 13 14  1  0  0  0
 14 30  1  0  0  0
 14 15  2  0  0  0
 15 16  1  0  0  0
 16 17  1  0  0  0
 16 24  2  0  0  0
 17 18  1  0  0  0
 18 22  2  0  0  0
 19 20  2  0  0  0
 20 21  1  0  0  0
 22 24  1  0  0  0
 22 23  1  0  0  0
 24 25  1  0  0  0
 25 26  1  0  0  0
 26 27  1  0  0  0
 27 29  1  0  0  0
 27 28  2  0  0  0
 30 36  2  0  0  0
 30 31  1  0  0  0
 31 32  1  0  0  0
 32 33  1  0  0  0
 33 35  1  0  0  0
 33 34  2  0  0  0
 36 37  1  0  0  0
 38 40  2  0  0  0
 38 39  1  0  0  0
 40 41  1  0  0  0
 41 42  2  0  0  0
M  CHG  3   9  -1  17  -1  43   4
M  END
> <SMILES>
C=CC2=C(C)C=1C=C5[N-]C(=CC4=NC(=CC=3[N-]C(C=C2(N=1))=C(C)C=3(CCC(=O)O))C(CCC(=O)O)=C4(C))C(C)=C5(C=C).[Fe+4]

> <NAME>
PROTOHEME

> <BioCyc_link>
http://biocyc.org/HUMAN/NEW-IMAGE?object=PROTOHEME

> <BioCyc_name_HTML>
protoheme

> <CAS>
14875-96-8

> <KEGG_ID>
C00032

> <toxTree.tree.cramer.CramerTreeResult>


> <FORMULA>


> <toxTree.tree.cramer.CramerRules>


$$$$
UDP-GALACTOSE
 OpenBabel30120812303D

 44 46  0  0  0  0  0  0  0  0999 V2000
    1.0000    0.0000    0.0000 H   0  0  0  0  0
    2.5000    0.0000    0.0000 C   0  0  0  0  0
    2.9034    0.1217   -1.4396 O   0  0  0  0  0
    3.0599    1.1537    0.8679 C   0  0  0  0  0
    4.4904    0.6582    1.2094 O   0  0  0  0  0
    4.3235   -0.8601    1.4286 C   0  0  0  0  0
    4.1957   -1.1812    2.8882 H   0  0  0  0  0
    5.5233   -1.6057    0.9241 C   0  0  0  0  0
    5.3310   -3.0759    1.1509 O   0  0  0  0  0
    6.5309   -3.8215    0.6465 P   0  0  0  0  0
    6.6883   -3.5658   -0.8232 O   0  0  0  0  0
    7.7697   -3.3458    1.3457 O   0  0  0  0  0
    6.3386   -5.2917    0.8733 O   0  0  0  0  0
    7.5384   -6.0373    0.3689 P   0  0  0  0  0
    7.6959   -5.7816   -1.1008 O   0  0  0  0  0
    8.7773   -5.5616    1.0681 O   0  0  0  0  0
    7.3462   -7.5075    0.5957 O   0  0  0  0  0
    8.5460   -8.2531    0.0912 C   0  0  0  0  0
    9.4105   -7.1067   -0.3426 H   0  0  0  0  0
    9.0848   -9.1290    1.2248 O   0  0  0  0  0
    8.2767  -10.3016    1.3453 C   0  0  0  0  0
    6.8681   -9.8240    1.5390 H   0  0  0  0  0
    8.7420  -11.1104    2.5198 C   0  0  0  0  0
    7.8945  -12.3415    2.6472 O   0  0  0  0  0
    8.2641  -11.1235    0.1766 C   0  0  0  0  0
    7.4012  -12.3247    0.4269 H   0  0  0  0  0
    9.6518  -11.5957   -0.1414 O   0  0  0  0  0
    7.6921  -10.3283   -0.9994 C   0  0  0  0  0
    6.2754   -9.9396   -0.6963 H   0  0  0  0  0
    7.6926  -11.1659   -2.2438 O   0  0  0  0  0
    8.5331   -9.0651   -1.2081 C   0  0  0  0  0
    7.9324   -8.2402   -2.3075 H   0  0  0  0  0
    9.9318   -9.4301   -1.6087 O   0  0  0  0  0
    3.0578   -1.2782    0.6595 C   0  0  0  0  0
    2.0467   -1.8906    1.5829 H   0  0  0  0  0
    3.3824   -2.3132   -0.3765 O   0  0  0  0  0
    2.2387    1.3587    2.1063 N   0  0  0  0  0
    2.0280    2.6344    2.5855 C   0  0  0  0  0
    1.2893    2.8253    3.7550 C   0  0  0  0  0
    0.7637    1.7213    4.4281 C   0  0  0  0  0
   -0.0312    1.9160    5.6852 O   0  0  0  0  0
    0.9767    0.4512    3.9350 N   0  0  0  0  0
    1.7099    0.2688    2.7751 C   0  0  0  0  0
    1.9319   -1.1153    2.2413 O   0  0  0  0  0
  1  2  1  0  0  0
  2 34  1  0  0  0
  2  4  1  0  0  0
  2  3  1  0  0  0
  4  5  1  0  0  0
  4 37  1  0  0  0
  5  6  1  0  0  0
  6 34  1  0  0  0
  6  8  1  0  0  0
  6  7  1  0  0  0
  8  9  1  0  0  0
  9 10  1  0  0  0
 10 13  1  0  0  0
 10 12  1  0  0  0
 10 11  2  0  0  0
 13 14  1  0  0  0
 14 17  1  0  0  0
 14 16  1  0  0  0
 14 15  2  0  0  0
 17 18  1  0  0  0
 18 31  1  0  0  0
 18 20  1  0  0  0
 18 19  1  0  0  0
 20 21  1  0  0  0
 21 25  1  0  0  0
 21 23  1  0  0  0
 21 22  1  0  0  0
 23 24  1  0  0  0
 25 28  1  0  0  0
 25 27  1  0  0  0
 25 26  1  0  0  0
 28 31  1  0  0  0
 28 30  1  0  0  0
 28 29  1  0  0  0
 31 33  1  0  0  0
 31 32  1  0  0  0
 34 36  1  0  0  0
 34 35  1  0  0  0
 37 43  1  0  0  0
 37 38  1  0  0  0
 38 39  2  0  0  0
 39 40  1  0  0  0
 40 42  1  0  0  0
 40 41  2  0  0  0
 42 43  1  0  0  0
 43 44  2  0  0  0
M  END
> <SMILES>
[H]C2(O)(C(OC([H])(COP(=O)(O)OP(=O)(O)OC1([H])(OC([H])(CO)C([H])(O)C([H])(O)C1([H])(O)))C2([H])(O))N3C=CC(=O)NC3(=O))

> <NAME>
UDP-GALACTOSE

> <BioCyc_link>
http://biocyc.org/HUMAN/NEW-IMAGE?object=UDP-GALACTOSE

> <BioCyc_name_HTML>
UDP-D-galactose

> <CAS>
2956-16-3

> <KEGG_ID>
C00052

> <toxTree.tree.cramer.CramerTreeResult>


> <FORMULA>


> <toxTree.tree.cramer.CramerRules>


$$$$
COBINAMIDE
 OpenBabel30120812303D

 72 74  0  0  0  0  0  0  0  0999 V2000
    1.0000    0.0000    0.0000 H   0  0  0  0  0
    2.5000    0.0000    0.0000 C   0  0  0  0  0
    2.9155    0.0002    1.4413 C   0  0  0  0  0
    4.4128    0.0003    1.5308 C   0  0  0  0  0
    4.8282    0.0005    2.9721 C   0  0  0  0  0
    3.7878    0.0007    4.0526 N   0  0  0  0  0
    6.2842    0.0006    3.3330 O   0  0  0  0  0
    2.9849    1.0737   -0.6623 C   0  0  0  0  0
    3.7783    0.6871   -1.7386 N   0  0  0  0  0
    3.8677   -0.5980   -1.8601 C   0  0  0  0  0
    4.6396   -1.3443   -2.9075 C   0  0  0  0  0
    4.6420   -2.8443   -2.9109 C   0  0  0  0  0
    4.3276   -3.6279   -4.0176 N   0  0  0  0  0
    4.3980   -4.8962   -3.7707 C   0  0  0  0  0
    4.1235   -6.0104   -4.7367 C   0  0  0  0  0
    3.7221   -5.6979   -6.1478 C   0  0  0  0  0
    4.2505   -7.4372   -4.2915 C   0  0  0  0  0
    5.5663   -8.1960   -3.9907 N   0  0  0  0  0
    5.2743   -9.6154   -4.5460 C   0  0  0  0  0
    6.1833  -10.6558   -3.9616 C   0  0  0  0  0
    5.4957   -9.6745   -6.0284 C   0  0  0  0  0
    6.4287   -8.7143   -6.4092 N   0  0  0  0  0
    7.4530   -9.2224   -7.0149 C   0  0  0  0  0
    2.7043    2.4984   -0.2859 C   0  0  0  0  0
    1.8331    2.8041    0.8963 C   0  0  0  0  0
    7.2311  -10.7199   -7.0765 C   0  0  0  0  0
    8.3373  -11.4956   -6.4248 C   0  0  0  0  0
    7.1881  -11.2063   -8.4948 C   0  0  0  0  0
    6.9673  -12.6899   -8.5088 C   0  0  0  0  0
    6.9243  -13.1764   -9.9271 C   0  0  0  0  0
    7.0924  -12.2058  -11.0583 O   0  0  0  0  0
    6.7132  -14.6335  -10.2141 N   0  0  0  0  0
    6.6701  -15.1199  -11.6324 C   0  0  0  0  0
    6.4494  -16.6035  -11.6464 C   0  0  0  0  0
    5.1702  -16.9449  -10.9413 C   0  0  0  0  0
    6.4063  -17.0900  -13.0647 O   0  0  0  0  0
    5.8948  -10.9151   -6.3864 C   0  0  0  0  0
    6.0080  -11.8275   -5.2012 H   0  0  0  0  0
    4.9006  -11.5548   -7.3097 C   0  0  0  0  0
    3.5942  -11.7315   -6.5941 C   0  0  0  0  0
    3.4538  -11.2864   -5.1685 N   0  0  0  0  0
    2.4283  -12.3533   -7.3040 O   0  0  0  0  0
    3.7929   -9.8634   -4.1923 C   0  0  0  0  0
    3.6688  -10.6657   -2.9310 C   0  0  0  0  0
    3.1117  -10.6482   -5.2740 C   0  0  0  0  0
    1.6761  -10.8725   -4.9016 C   0  0  0  0  0
    1.1438  -10.3324   -3.6074 N   0  0  0  0  0
    0.7728  -11.6369   -5.8234 O   0  0  0  0  0
    3.1423   -8.4782   -4.0306 C   0  0  0  0  0
    2.5647   -8.3139   -2.6560 H   0  0  0  0  0
    2.0110   -8.3054   -5.0002 C   0  0  0  0  0
    1.3985   -6.9482   -4.8182 C   0  0  0  0  0
    0.2671   -6.7754   -5.7878 C   0  0  0  0  0
   -0.0828   -7.8827   -6.7372 N   0  0  0  0  0
   -0.5143   -5.4951   -5.8081 O   0  0  0  0  0
    4.8106   -5.0412   -2.3202 C   0  0  0  0  0
    6.0746   -5.8317   -2.1548 C   0  0  0  0  0
    3.7732   -5.7825   -1.5302 C   0  0  0  0  0
    4.2214   -5.9028   -0.1038 C   0  0  0  0  0
    5.5361   -5.3187    0.3211 N   0  0  0  0  0
    3.3550   -6.6072    0.8978 O   0  0  0  0  0
    4.9496   -3.6092   -1.8400 C   0  0  0  0  0
    6.3312   -3.3243   -1.3303 H   0  0  0  0  0
    4.0195   -3.3326   -0.6961 C   0  0  0  0  0
    4.1848   -1.9103   -0.2491 C   0  0  0  0  0
    3.2547   -1.6336    0.8947 C   0  0  0  0  0
    2.3525   -2.7171    1.4068 N   0  0  0  0  0
    3.2267   -0.2735    1.5265 O   0  0  0  0  0
    3.0442   -1.2052   -0.7428 C   0  0  0  0  0
    3.8476   -2.1139    0.1397 C   0  0  0  0  0
    1.9352   -2.0576   -1.2846 C   0  0  0  0  0
    1.0000    0.0000    0.0000 Co  0  0  0  0  0
  1  2  1  0  0  0
  2  8  1  0  0  0
  2 69  1  0  0  0
  2  3  1  0  0  0
  3  4  1  0  0  0
  4  5  1  0  0  0
  5  7  2  0  0  0
  5  6  1  0  0  0
  8  9  1  0  0  0
  8 24  2  0  0  0
  9 10  2  0  0  0
 10 69  1  0  0  0
 10 11  1  0  0  0
 11 12  2  0  0  0
 12 62  1  0  0  0
 12 13  1  0  0  0
 13 14  2  0  0  0
 14 56  1  0  0  0
 14 15  1  0  0  0
 15 17  2  0  0  0
 15 16  1  0  0  0
 17 49  1  0  0  0
 17 18  1  0  0  0
 18 19  1  0  0  0
 19 43  1  0  0  0
 19 21  1  0  0  0
 19 20  1  0  0  0
 21 37  1  0  0  0
 21 22  1  0  0  0
 22 23  2  0  0  0
 23 26  1  0  0  0
 24 25  1  0  0  0
 26 37  1  0  0  0
 26 28  1  0  0  0
 26 27  1  0  0  0
 28 29  1  0  0  0
 29 30  1  0  0  0
 30 32  1  0  0  0
 30 31  2  0  0  0
 32 33  1  0  0  0
 33 34  1  0  0  0
 34 36  1  0  0  0
 34 35  1  0  0  0
 37 39  1  0  0  0
 37 38  1  0  0  0
 39 40  1  0  0  0
 40 42  2  0  0  0
 40 41  1  0  0  0
 43 49  1  0  0  0
 43 45  1  0  0  0
 43 44  1  0  0  0
 45 46  1  0  0  0
 46 48  2  0  0  0
 46 47  1  0  0  0
 49 51  1  0  0  0
 49 50  1  0  0  0
 51 52  1  0  0  0
 52 53  1  0  0  0
 53 55  2  0  0  0
 53 54  1  0  0  0
 56 62  1  0  0  0
 56 58  1  0  0  0
 56 57  1  0  0  0
 58 59  1  0  0  0
 59 61  2  0  0  0
 59 60  1  0  0  0
 62 64  1  0  0  0
 62 63  1  0  0  0
 64 65  1  0  0  0
 65 66  1  0  0  0
 66 68  2  0  0  0
 66 67  1  0  0  0
 69 71  1  0  0  0
 69 70  1  0  0  0
M  CHG  2  18  -1  72   3
M  END
> <SMILES>
[H]C5(CCC(N)=O)(C=1N=C(C=C4N=C(C(C)=C3[N-]C(C)(C2N=C(C=1(C))C(C)(CCC(=O)NCC(C)O)C2([H])(CC(N)=O))C(C)(CC(N)=O)C3([H])(CCC(N)=O))C(C)(CC(N)=O)C4([H])(CCC(N)=O))C5(C)(C)).[Co+3]

> <NAME>
COBINAMIDE

> <BioCyc_link>
http://biocyc.org/HUMAN/NEW-IMAGE?object=COBINAMIDE

> <BioCyc_name_HTML>
cobinamide

> <CAS>
1867-62-5

> <KEGG_ID>
C05774

> <toxTree.tree.cramer.CramerTreeResult>


> <FORMULA>


> <toxTree.tree.cramer.CramerRules>


$$$$
ADENOSYLCOBINAMIDE
 OpenBabel30120812303D

 96100  0  0  0  0  0  0  0  0999 V2000
    1.0000    0.0000    0.0000 H   0  0  0  0  0
    2.5000    0.0000    0.0000 C   0  0  0  0  0
    2.9155    0.0002    1.4413 C   0  0  0  0  0
    4.4128    0.0003    1.5308 C   0  0  0  0  0
    4.8282    0.0005    2.9721 C   0  0  0  0  0
    3.7878    0.0007    4.0526 N   0  0  0  0  0
    6.2842    0.0006    3.3330 O   0  0  0  0  0
    2.9849    1.0737   -0.6623 C   0  0  0  0  0
    3.7783    0.6871   -1.7386 N   0  0  0  0  0
    3.8677   -0.5980   -1.8601 C   0  0  0  0  0
    4.6396   -1.3443   -2.9075 C   0  0  0  0  0
    4.6420   -2.8443   -2.9109 C   0  0  0  0  0
    4.3276   -3.6279   -4.0176 N   0  0  0  0  0
    4.3980   -4.8962   -3.7707 C   0  0  0  0  0
    4.1235   -6.0104   -4.7367 C   0  0  0  0  0
    3.7221   -5.6979   -6.1478 C   0  0  0  0  0
    4.2505   -7.4372   -4.2915 C   0  0  0  0  0
    5.5663   -8.1960   -3.9907 N   0  0  0  0  0
    5.2743   -9.6154   -4.5460 C   0  0  0  0  0
    6.1833  -10.6558   -3.9616 C   0  0  0  0  0
    5.4957   -9.6745   -6.0284 C   0  0  0  0  0
    6.4287   -8.7143   -6.4092 N   0  0  0  0  0
    7.4530   -9.2224   -7.0149 C   0  0  0  0  0
    2.7043    2.4984   -0.2859 C   0  0  0  0  0
    1.8331    2.8041    0.8963 C   0  0  0  0  0
    7.2311  -10.7199   -7.0765 C   0  0  0  0  0
    8.3373  -11.4956   -6.4248 C   0  0  0  0  0
    7.1881  -11.2063   -8.4948 C   0  0  0  0  0
    6.9673  -12.6899   -8.5088 C   0  0  0  0  0
    6.9243  -13.1764   -9.9271 C   0  0  0  0  0
    7.0924  -12.2058  -11.0583 O   0  0  0  0  0
    6.7132  -14.6335  -10.2141 N   0  0  0  0  0
    6.6701  -15.1199  -11.6324 C   0  0  0  0  0
    6.4494  -16.6035  -11.6464 C   0  0  0  0  0
    5.1702  -16.9449  -10.9413 C   0  0  0  0  0
    6.4063  -17.0900  -13.0647 O   0  0  0  0  0
    5.8948  -10.9151   -6.3864 C   0  0  0  0  0
    6.0080  -11.8275   -5.2012 H   0  0  0  0  0
    4.9006  -11.5548   -7.3097 C   0  0  0  0  0
    3.5942  -11.7315   -6.5941 C   0  0  0  0  0
    3.4538  -11.2864   -5.1685 N   0  0  0  0  0
    2.4283  -12.3533   -7.3040 O   0  0  0  0  0
    3.7929   -9.8634   -4.1923 C   0  0  0  0  0
    3.6688  -10.6657   -2.9310 C   0  0  0  0  0
    3.1117  -10.6482   -5.2740 C   0  0  0  0  0
    1.6761  -10.8725   -4.9016 C   0  0  0  0  0
    1.1438  -10.3324   -3.6074 N   0  0  0  0  0
    0.7728  -11.6369   -5.8234 O   0  0  0  0  0
    3.1423   -8.4782   -4.0306 C   0  0  0  0  0
    2.5647   -8.3139   -2.6560 H   0  0  0  0  0
    2.0110   -8.3054   -5.0002 C   0  0  0  0  0
    1.3985   -6.9482   -4.8182 C   0  0  0  0  0
    0.2671   -6.7754   -5.7878 C   0  0  0  0  0
   -0.0828   -7.8827   -6.7372 N   0  0  0  0  0
   -0.5143   -5.4951   -5.8081 O   0  0  0  0  0
    4.8106   -5.0412   -2.3202 C   0  0  0  0  0
    6.0746   -5.8317   -2.1548 C   0  0  0  0  0
    3.7732   -5.7825   -1.5302 C   0  0  0  0  0
    4.2214   -5.9028   -0.1038 C   0  0  0  0  0
    5.5361   -5.3187    0.3211 N   0  0  0  0  0
    3.3550   -6.6072    0.8978 O   0  0  0  0  0
    4.9496   -3.6092   -1.8400 C   0  0  0  0  0
    6.3312   -3.3243   -1.3303 H   0  0  0  0  0
    4.0195   -3.3326   -0.6961 C   0  0  0  0  0
    4.1848   -1.9103   -0.2491 C   0  0  0  0  0
    3.2547   -1.6336    0.8947 C   0  0  0  0  0
    2.3525   -2.7171    1.4068 N   0  0  0  0  0
    3.2267   -0.2735    1.5265 O   0  0  0  0  0
    3.0442   -1.2052   -0.7428 C   0  0  0  0  0
    3.8476   -2.1139    0.1397 C   0  0  0  0  0
    1.9352   -2.0576   -1.2846 C   0  0  0  0  0
    1.0000    0.0000    0.0000 H   0  0  0  0  0
    2.5000    0.0000    0.0000 C   0  0  0  0  0
    3.0193   -0.7348   -1.2002 H   0  0  0  0  0
    3.0007    1.4140    0.0000 C   0  0  0  0  0
    3.9584    1.2394   -1.1412 H   0  0  0  0  0
    2.2311    2.6749   -0.4641 O   0  0  0  0  0
    3.0763    3.8291    0.1376 C   0  0  0  0  0
    2.3019    5.1094    0.2434 H   0  0  0  0  0
    4.2590    4.1447   -0.7293 N   0  0  0  0  0
    5.1002    3.2549   -1.2800 C   0  0  0  0  0
    6.0673    3.9235   -2.0413 N   0  0  0  0  0
    5.8406    5.2194   -1.9733 C   0  0  0  0  0
    6.4770    6.4128   -2.5312 C   0  0  0  0  0
    7.6828    6.3121   -3.4177 N   0  0  0  0  0
    5.9216    7.6380   -2.2079 N   0  0  0  0  0
    4.7959    7.7069   -1.3943 C   0  0  0  0  0
    4.2119    6.6539   -0.8854 N   0  0  0  0  0
    4.6587    5.4080   -1.1187 C   0  0  0  0  0
    3.5206    3.2951    1.5154 C   0  0  0  0  0
    2.6192    3.7994    2.6031 H   0  0  0  0  0
    4.9057    3.7659    1.8472 O   0  0  0  0  0
    3.4724    1.7595    1.4276 C   0  0  0  0  0
    2.5367    1.1925    2.4538 H   0  0  0  0  0
    4.8240    1.1683    1.6990 O   0  0  0  0  0
    1.0000    0.0000    0.0000 Co  0  0  0  0  0
  1  2  1  0  0  0
  2  8  1  0  0  0
  2 69  1  0  0  0
  2  3  1  0  0  0
  3  4  1  0  0  0
  4  5  1  0  0  0
  5  7  2  0  0  0
  5  6  1  0  0  0
  8  9  1  0  0  0
  8 24  2  0  0  0
  9 10  2  0  0  0
 10 69  1  0  0  0
 10 11  1  0  0  0
 11 12  2  0  0  0
 12 62  1  0  0  0
 12 13  1  0  0  0
 13 14  2  0  0  0
 14 56  1  0  0  0
 14 15  1  0  0  0
 15 17  2  0  0  0
 15 16  1  0  0  0
 17 49  1  0  0  0
 17 18  1  0  0  0
 18 19  1  0  0  0
 19 43  1  0  0  0
 19 21  1  0  0  0
 19 20  1  0  0  0
 21 37  1  0  0  0
 21 22  1  0  0  0
 22 23  2  0  0  0
 23 26  1  0  0  0
 24 25  1  0  0  0
 26 37  1  0  0  0
 26 28  1  0  0  0
 26 27  1  0  0  0
 28 29  1  0  0  0
 29 30  1  0  0  0
 30 32  1  0  0  0
 30 31  2  0  0  0
 32 33  1  0  0  0
 33 34  1  0  0  0
 34 36  1  0  0  0
 34 35  1  0  0  0
 37 39  1  0  0  0
 37 38  1  0  0  0
 39 40  1  0  0  0
 40 42  2  0  0  0
 40 41  1  0  0  0
 43 49  1  0  0  0
 43 45  1  0  0  0
 43 44  1  0  0  0
 45 46  1  0  0  0
 46 48  2  0  0  0
 46 47  1  0  0  0
 49 51  1  0  0  0
 49 50  1  0  0  0
 51 52  1  0  0  0
 52 53  1  0  0  0
 53 55  2  0  0  0
 53 54  1  0  0  0
 56 62  1  0  0  0
 56 58  1  0  0  0
 56 57  1  0  0  0
 58 59  1  0  0  0
 59 61  2  0  0  0
 59 60  1  0  0  0
 62 64  1  0  0  0
 62 63  1  0  0  0
 64 65  1  0  0  0
 65 66  1  0  0  0
 66 68  2  0  0  0
 66 67  1  0  0  0
 69 71  1  0  0  0
 69 70  1  0  0  0
 72 73  1  0  0  0
 73 75  1  0  0  0
 73 74  1  0  0  0
 75 93  1  0  0  0
 75 77  1  0  0  0
 75 76  1  0  0  0
 77 78  1  0  0  0
 78 90  1  0  0  0
 78 80  1  0  0  0
 78 79  1  0  0  0
 80 89  1  0  0  0
 80 81  1  0  0  0
 81 82  2  0  0  0
 82 83  1  0  0  0
 83 89  2  0  0  0
 83 84  1  0  0  0
 84 86  2  0  0  0
 84 85  1  0  0  0
 86 87  1  0  0  0
 87 88  2  0  0  0
 88 89  1  0  0  0
 90 93  1  0  0  0
 90 92  1  0  0  0
 90 91  1  0  0  0
 93 95  1  0  0  0
 93 94  1  0  0  0
M  CHG  3  18  -1  73  -1  96   3
M  END
> <SMILES>
[H]C5(CCC(N)=O)(C=1N=C(C=C4N=C(C(C)=C3[N-]C(C)(C2N=C(C=1(C))C(C)(CCC(=O)NCC(C)O)C2([H])(CC(N)=O))C(C)(CC(N)=O)C3([H])(CCC(N)=O))C(C)(CC(N)=O)C4([H])(CCC(N)=O))C5(C)(C)).[H][C-]([H])C3([H])(OC([H])(N2C=NC=1C(N)=NC=NC=12)C([H])(O)C3([H])(O)).[Co+3]

> <NAME>
ADENOSYLCOBINAMIDE

> <BioCyc_link>
http://biocyc.org/HUMAN/NEW-IMAGE?object=ADENOSYLCOBINAMIDE

> <BioCyc_name_HTML>
adenosylcobinamide

> <CAS>


> <KEGG_ID>
C06508

> <toxTree.tree.cramer.CramerTreeResult>


> <FORMULA>


> <toxTree.tree.cramer.CramerRules>


$$$$
CGMP
 OpenBabel30120812303D

 27 30  0  0  0  0  0  0  0  0999 V2000
    1.0000    0.0000    0.0000 H   0  0  0  0  0
    2.5000    0.0000    0.0000 C   0  0  0  0  0
    3.0510   -1.3928    0.3142 C   0  0  0  0  0
    4.0846   -1.7171   -0.6180 O   0  0  0  0  0
    5.2022   -0.8277   -0.5821 P   0  0  0  0  0
    6.2225   -1.2758   -1.5862 O   0  0  0  0  0
    5.8365   -0.8450    0.7771 O   0  0  0  0  0
    4.7382    0.5880   -0.9326 O   0  0  0  0  0
    3.6452    1.0166    0.0515 C   0  0  0  0  0
    3.3140    2.2587    0.8245 H   0  0  0  0  0
    4.8686   -0.9114   -0.9273 C   0  0  0  0  0
    5.6195   -1.8415   -1.8335 H   0  0  0  0  0
    5.7770   -2.0855   -1.1426 O   0  0  0  0  0
    3.2823    0.7231    0.0305 C   0  0  0  0  0
    1.9419    1.3798   -0.1186 H   0  0  0  0  0
    4.6963    0.5766   -0.5587 O   0  0  0  0  0
    2.6913    1.0008    1.3809 N   0  0  0  0  0
    2.5903    2.2094    1.9567 C   0  0  0  0  0
    2.0356    2.0811    3.2365 N   0  0  0  0  0
    1.7886    0.8078    3.4670 C   0  0  0  0  0
    1.2284    0.0472    4.5842 C   0  0  0  0  0
    0.7714    0.7278    5.8403 O   0  0  0  0  0
    1.1371   -1.3252    4.4351 N   0  0  0  0  0
    1.5554   -1.9337    3.2566 C   0  0  0  0  0
    1.4222   -3.4231    3.1383 N   0  0  0  0  0
    2.0587   -1.2736    2.2468 N   0  0  0  0  0
    2.2062    0.0621    2.2702 C   0  0  0  0  0
  1  2  1  0  0  0
  2  9  1  0  0  0
  2  3  1  0  0  0
  2 16  1  0  0  0
  3  4  1  0  0  0
  4  5  1  0  0  0
  5  8  1  0  0  0
  5  7  1  0  0  0
  5  6  2  0  0  0
  8  9  1  0  0  0
  9 11  1  0  0  0
  9 10  1  0  0  0
 11 14  1  0  0  0
 11 13  1  0  0  0
 11 12  1  0  0  0
 14 16  1  0  0  0
 14 17  1  0  0  0
 14 15  1  0  0  0
 17 27  1  0  0  0
 17 18  1  0  0  0
 18 19  2  0  0  0
 19 20  1  0  0  0
 20 27  2  0  0  0
 20 21  1  0  0  0
 21 23  1  0  0  0
 21 22  2  0  0  0
 23 24  1  0  0  0
 24 26  2  0  0  0
 24 25  1  0  0  0
 26 27  1  0  0  0
M  END
> <SMILES>
[H]C12(COP(=O)(O)OC1([H])C([H])(O)C([H])(O2)N4C=NC=3C(=O)NC(N)=NC=34)

> <NAME>
CGMP

> <BioCyc_link>
http://biocyc.org/HUMAN/NEW-IMAGE?object=CGMP

> <BioCyc_name_HTML>
cyclic-GMP

> <CAS>
7665-99-8

> <KEGG_ID>
C00942

> <toxTree.tree.cramer.CramerTreeResult>


> <FORMULA>


> <toxTree.tree.cramer.CramerRules>


$$$$
CARBAMOYL-P
 OpenBabel30120812303D

  8  7  0  0  0  0  0  0  0  0999 V2000
    1.0000    0.0000    0.0000 N   0  0  0  0  0
    2.5000    0.0000    0.0000 C   0  0  0  0  0
    3.2500   -1.2990    0.0000 O   0  0  0  0  0
    3.2500    1.2990    0.0000 O   0  0  0  0  0
    4.7500    1.2990    0.0000 P   0  0  0  0  0
    5.2431    0.6013    1.2329 O   0  0  0  0  0
    5.2693    0.5642   -1.2002 O   0  0  0  0  0
    5.2507    2.7130    0.0000 O   0  0  0  0  0
  1  2  1  0  0  0
  2  4  1  0  0  0
  2  3  2  0  0  0
  4  5  1  0  0  0
  5  8  1  0  0  0
  5  7  1  0  0  0
  5  6  2  0  0  0
M  END
> <SMILES>
NC(=O)OP(=O)(O)O

> <NAME>
CARBAMOYL-P

> <BioCyc_link>
http://biocyc.org/HUMAN/NEW-IMAGE?object=CARBAMOYL-P

> <BioCyc_name_HTML>
carbamoyl-phosphate

> <CAS>
590-55-6

> <KEGG_ID>
C00169

> <toxTree.tree.cramer.CramerTreeResult>


> <FORMULA>


> <toxTree.tree.cramer.CramerRules>


$$$$
4-P-PANTOTHENATE
 OpenBabel30120812303D

 20 19  0  0  0  0  0  0  0  0999 V2000
    1.0000    0.0000    0.0000 H   0  0  0  0  0
    2.5000    0.0000    0.0000 C   0  0  0  0  0
    2.9931   -0.6977    1.2329 O   0  0  0  0  0
    3.0193   -0.7348   -1.2002 C   0  0  0  0  0
    3.9071   -0.0318   -2.1838 O   0  0  0  0  0
    2.6508   -2.1726   -1.4167 N   0  0  0  0  0
    3.1701   -2.9074   -2.6168 C   0  0  0  0  0
    2.6597   -4.3178   -2.6000 C   0  0  0  0  0
    3.1790   -5.0526   -3.8001 C   0  0  0  0  0
    4.0668   -4.3496   -4.7837 O   0  0  0  0  0
    2.8105   -6.4905   -4.0166 O   0  0  0  0  0
    3.0007    1.4140    0.0000 C   0  0  0  0  0
    2.5076    2.1117   -1.2329 C   0  0  0  0  0
    2.4814    2.1488    1.2002 C   0  0  0  0  0
    4.5007    1.4140    0.0000 C   0  0  0  0  0
    5.0014    2.8279    0.0000 O   0  0  0  0  0
    6.5014    2.8279    0.0000 P   0  0  0  0  0
    6.9945    2.1302    1.2329 O   0  0  0  0  0
    7.0207    2.0931   -1.2002 O   0  0  0  0  0
    7.0021    4.2419    0.0000 O   0  0  0  0  0
  1  2  1  0  0  0
  2 12  1  0  0  0
  2  4  1  0  0  0
  2  3  1  0  0  0
  4  6  1  0  0  0
  4  5  2  0  0  0
  6  7  1  0  0  0
  7  8  1  0  0  0
  8  9  1  0  0  0
  9 11  1  0  0  0
  9 10  2  0  0  0
 12 15  1  0  0  0
 12 14  1  0  0  0
 12 13  1  0  0  0
 15 16  1  0  0  0
 16 17  1  0  0  0
 17 20  1  0  0  0
 17 19  1  0  0  0
 17 18  2  0  0  0
M  END
> <SMILES>
[H]C(O)(C(=O)NCCC(=O)O)C(C)(C)COP(=O)(O)O

> <NAME>
4-P-PANTOTHENATE

> <BioCyc_link>
http://biocyc.org/HUMAN/NEW-IMAGE?object=4-P-PANTOTHENATE

> <BioCyc_name_HTML>
D-4'-phosphopantothenate

> <CAS>


> <KEGG_ID>
C03492

> <toxTree.tree.cramer.CramerTreeResult>


> <FORMULA>


> <toxTree.tree.cramer.CramerRules>


$$$$
NADH
 OpenBabel30120812303D

 52 56  0  0  0  0  0  0  0  0999 V2000
    1.0000    0.0000    0.0000 H   0  0  0  0  0
    2.5000    0.0000    0.0000 C   0  0  0  0  0
    2.9034    0.1217   -1.4396 C   0  0  0  0  0
    4.3999    0.1302   -1.5413 O   0  0  0  0  0
    4.8033    0.2519   -2.9809 P   0  0  0  0  0
    4.2639   -0.9208   -3.7449 O   0  0  0  0  0
    4.2352    1.5066   -3.5751 O   0  0  0  0  0
    6.2998    0.2605   -3.0825 O   0  0  0  0  0
    6.7032    0.3821   -4.5222 P   0  0  0  0  0
    6.1638   -0.7906   -5.2862 O   0  0  0  0  0
    6.1351    1.6368   -5.1164 O   0  0  0  0  0
    8.1997    0.3907   -4.6238 O   0  0  0  0  0
    8.6031    0.5124   -6.0634 C   0  0  0  0  0
   10.0996    0.5210   -6.1651 C   0  0  0  0  0
   10.4039    0.6580   -7.6275 H   0  0  0  0  0
   10.7112    1.6700   -5.3263 O   0  0  0  0  0
   12.1640    1.1796   -5.0871 C   0  0  0  0  0
   12.8132    1.8634   -3.9205 H   0  0  0  0  0
   13.0394    1.4800   -6.2676 N   0  0  0  0  0
   13.6945    0.5819   -7.0205 C   0  0  0  0  0
   14.3768    1.2360   -8.0542 N   0  0  0  0  0
   14.1559    2.5310   -7.9565 C   0  0  0  0  0
   14.5734    3.7127   -8.7113 C   0  0  0  0  0
   15.4609    3.5965   -9.9151 N   0  0  0  0  0
   14.1166    4.9417   -8.2699 N   0  0  0  0  0
   13.2844    5.0247   -7.1588 C   0  0  0  0  0
   12.8995    3.9824   -6.4702 N   0  0  0  0  0
   13.2801    2.7343   -6.7927 C   0  0  0  0  0
   12.0201   -0.3415   -4.8714 C   0  0  0  0  0
   11.9931   -0.6765   -3.4096 H   0  0  0  0  0
   13.1867   -1.0756   -5.4630 O   0  0  0  0  0
   10.7073   -0.7599   -5.5569 C   0  0  0  0  0
    9.7642   -1.3864   -4.5730 H   0  0  0  0  0
   10.9662   -1.7836   -6.6222 O   0  0  0  0  0
    3.0599    1.1537    0.8679 O   0  0  0  0  0
    4.4904    0.6582    1.2094 C   0  0  0  0  0
    5.0630    1.3496    2.4111 H   0  0  0  0  0
    5.4454    0.9430    0.0883 N   0  0  0  0  0
    5.5918    2.2432   -0.3762 C   0  0  0  0  0
    6.6273    2.5864   -1.1092 C   0  0  0  0  0
    7.6966    1.6001   -1.4806 C   0  0  0  0  0
    7.2326    0.1917   -1.2484 C   0  0  0  0  0
    6.1521   -0.0737   -0.4891 C   0  0  0  0  0
    7.9874   -0.9433   -1.8746 C   0  0  0  0  0
    9.1927   -0.6649   -2.7229 N   0  0  0  0  0
    7.5368   -2.3567   -1.6525 O   0  0  0  0  0
    4.3235   -0.8601    1.4286 C   0  0  0  0  0
    4.1957   -1.1812    2.8882 H   0  0  0  0  0
    5.5233   -1.6057    0.9241 O   0  0  0  0  0
    3.0578   -1.2782    0.6595 C   0  0  0  0  0
    2.0467   -1.8906    1.5829 H   0  0  0  0  0
    3.3824   -2.3132   -0.3765 O   0  0  0  0  0
  1  2  1  0  0  0
  2 50  1  0  0  0
  2 35  1  0  0  0
  2  3  1  0  0  0
  3  4  1  0  0  0
  4  5  1  0  0  0
  5  8  1  0  0  0
  5  7  1  0  0  0
  5  6  2  0  0  0
  8  9  1  0  0  0
  9 12  1  0  0  0
  9 11  1  0  0  0
  9 10  2  0  0  0
 12 13  1  0  0  0
 13 14  1  0  0  0
 14 32  1  0  0  0
 14 16  1  0  0  0
 14 15  1  0  0  0
 16 17  1  0  0  0
 17 29  1  0  0  0
 17 19  1  0  0  0
 17 18  1  0  0  0
 19 28  1  0  0  0
 19 20  1  0  0  0
 20 21  2  0  0  0
 21 22  1  0  0  0
 22 28  2  0  0  0
 22 23  1  0  0  0
 23 25  2  0  0  0
 23 24  1  0  0  0
 25 26  1  0  0  0
 26 27  2  0  0  0
 27 28  1  0  0  0
 29 32  1  0  0  0
 29 31  1  0  0  0
 29 30  1  0  0  0
 32 34  1  0  0  0
 32 33  1  0  0  0
 35 36  1  0  0  0
 36 47  1  0  0  0
 36 38  1  0  0  0
 36 37  1  0  0  0
 38 43  1  0  0  0
 38 39  1  0  0  0
 39 40  2  0  0  0
 40 41  1  0  0  0
 41 42  1  0  0  0
 42 43  2  0  0  0
 42 44  1  0  0  0
 44 46  2  0  0  0
 44 45  1  0  0  0
 47 50  1  0  0  0
 47 49  1  0  0  0
 47 48  1  0  0  0
 50 52  1  0  0  0
 50 51  1  0  0  0
M  END
> <SMILES>
[H]C5(COP(=O)(O)OP(=O)(O)OCC3([H])(OC([H])(N2C=NC=1C(N)=NC=NC=12)C([H])(O)C3([H])(O)))(OC([H])(N4C=CCC(=C4)C(N)=O)C([H])(O)C5([H])(O))

> <NAME>
NADH

> <BioCyc_link>
http://biocyc.org/HUMAN/NEW-IMAGE?object=NADH

> <BioCyc_name_HTML>
NADH

> <CAS>
53-84-9

> <KEGG_ID>
C00004

> <toxTree.tree.cramer.CramerTreeResult>


> <FORMULA>


> <toxTree.tree.cramer.CramerRules>


$$$$
FRUCTOSE-6P
 OpenBabel30120812303D

 19 19  0  0  0  0  0  0  0  0999 V2000
    1.0000    0.0000    0.0000 H   0  0  0  0  0
    2.5000    0.0000    0.0000 C   0  0  0  0  0
    2.9034    0.1217   -1.4396 O   0  0  0  0  0
    3.0599    1.1537    0.8679 C   0  0  0  0  0
    3.0416    2.4828    0.1728 H   0  0  0  0  0
    2.2387    1.3587    2.1063 O   0  0  0  0  0
    4.4904    0.6582    1.2094 C   0  0  0  0  0
    5.0630    1.3496    2.4111 O   0  0  0  0  0
    5.4454    0.9430    0.0883 C   0  0  0  0  0
    6.8129    0.4496    0.4579 O   0  0  0  0  0
    4.3235   -0.8601    1.4286 O   0  0  0  0  0
    3.0578   -1.2782    0.6595 C   0  0  0  0  0
    2.0467   -1.8906    1.5829 H   0  0  0  0  0
    3.3824   -2.3132   -0.3765 C   0  0  0  0  0
    2.1309   -2.6995   -1.1076 O   0  0  0  0  0
    2.4555   -3.7345   -2.1437 P   0  0  0  0  0
    3.4404   -3.1630   -3.1200 O   0  0  0  0  0
    3.0728   -4.9396   -1.4982 O   0  0  0  0  0
    1.2040   -4.1208   -2.8748 O   0  0  0  0  0
  1  2  1  0  0  0
  2 12  1  0  0  0
  2  4  1  0  0  0
  2  3  1  0  0  0
  4  7  1  0  0  0
  4  6  1  0  0  0
  4  5  1  0  0  0
  7 11  1  0  0  0
  7  9  1  0  0  0
  7  8  1  0  0  0
  9 10  1  0  0  0
 11 12  1  0  0  0
 12 14  1  0  0  0
 12 13  1  0  0  0
 14 15  1  0  0  0
 15 16  1  0  0  0
 16 19  1  0  0  0
 16 18  1  0  0  0
 16 17  2  0  0  0
M  END
> <SMILES>
[H]C1(O)(C([H])(O)C(O)(CO)OC1([H])(COP(=O)(O)O))

> <NAME>
FRUCTOSE-6P

> <BioCyc_link>
http://biocyc.org/HUMAN/NEW-IMAGE?object=FRUCTOSE-6P

> <BioCyc_name_HTML>
D-fructose-6-phosphate

> <CAS>
643-13-0

> <KEGG_ID>
C00085

> <toxTree.tree.cramer.CramerTreeResult>


> <FORMULA>


> <toxTree.tree.cramer.CramerRules>


$$$$
SUC-COA
 OpenBabel30120812303D

 59 61  0  0  0  0  0  0  0  0999 V2000
    1.0000    0.0000    0.0000 H   0  0  0  0  0
    2.5000    0.0000    0.0000 C   0  0  0  0  0
    2.9034    0.1217   -1.4396 C   0  0  0  0  0
    4.3999    0.1302   -1.5413 O   0  0  0  0  0
    4.8033    0.2519   -2.9809 P   0  0  0  0  0
    4.2639   -0.9208   -3.7449 O   0  0  0  0  0
    4.2352    1.5066   -3.5751 O   0  0  0  0  0
    6.2998    0.2605   -3.0825 O   0  0  0  0  0
    6.7032    0.3821   -4.5222 P   0  0  0  0  0
    6.1638   -0.7906   -5.2862 O   0  0  0  0  0
    6.1351    1.6368   -5.1164 O   0  0  0  0  0
    8.1997    0.3907   -4.6238 O   0  0  0  0  0
    8.6031    0.5124   -6.0634 C   0  0  0  0  0
   10.0996    0.5210   -6.1651 C   0  0  0  0  0
   10.6390    1.6937   -5.4011 C   0  0  0  0  0
   10.6677   -0.7337   -5.5708 C   0  0  0  0  0
   10.5030    0.6426   -7.6047 C   0  0  0  0  0
    9.9349    1.8973   -8.1989 O   0  0  0  0  0
   11.9995    0.6512   -7.7064 C   0  0  0  0  0
   12.8362    0.5464   -6.4658 O   0  0  0  0  0
   12.6594    0.7647   -9.0486 N   0  0  0  0  0
   14.1560    0.7733   -9.1503 C   0  0  0  0  0
   14.5594    0.8949  -10.5899 C   0  0  0  0  0
   16.0559    0.9035  -10.6915 C   0  0  0  0  0
   16.8925    0.7987   -9.4509 O   0  0  0  0  0
   16.7158    1.0169  -12.0338 N   0  0  0  0  0
   18.2123    1.0255  -12.1355 C   0  0  0  0  0
   18.6157    1.1472  -13.5751 C   0  0  0  0  0
   20.1122    1.1558  -13.6767 S   0  0  0  0  0
   20.5156    1.2774  -15.1163 C   0  0  0  0  0
   19.4661    1.3677  -16.1842 O   0  0  0  0  0
   21.9685    1.3088  -15.4881 C   0  0  0  0  0
   22.1018    1.4346  -16.9768 C   0  0  0  0  0
   23.5547    1.4661  -17.3485 C   0  0  0  0  0
   24.6042    1.3758  -16.2806 O   0  0  0  0  0
   23.9581    1.5877  -18.7881 O   0  0  0  0  0
    3.0599    1.1537    0.8679 O   0  0  0  0  0
    4.4904    0.6582    1.2094 C   0  0  0  0  0
    5.0630    1.3496    2.4111 H   0  0  0  0  0
    5.4454    0.9430    0.0883 N   0  0  0  0  0
    6.1375    0.0329   -0.6155 C   0  0  0  0  0
    6.9010    0.6737   -1.5995 N   0  0  0  0  0
    6.6943    1.9723   -1.5194 C   0  0  0  0  0
    7.1824    3.1454   -2.2447 C   0  0  0  0  0
    8.1503    3.0122   -3.3829 N   0  0  0  0  0
    6.7152    4.3825   -1.8381 N   0  0  0  0  0
    5.8084    4.4812   -0.7884 C   0  0  0  0  0
    5.3597    3.4468   -0.1271 N   0  0  0  0  0
    5.7422    2.1921   -0.4204 C   0  0  0  0  0
    4.3235   -0.8601    1.4286 C   0  0  0  0  0
    4.1957   -1.1812    2.8882 H   0  0  0  0  0
    5.5233   -1.6057    0.9241 O   0  0  0  0  0
    3.0578   -1.2782    0.6595 C   0  0  0  0  0
    2.0467   -1.8906    1.5829 H   0  0  0  0  0
    3.3824   -2.3132   -0.3765 O   0  0  0  0  0
    2.1309   -2.6995   -1.1076 P   0  0  0  0  0
    1.1459   -3.2710   -0.1313 O   0  0  0  0  0
    1.5136   -1.4944   -1.7531 O   0  0  0  0  0
    2.4555   -3.7345   -2.1437 O   0  0  0  0  0
  1  2  1  0  0  0
  2 53  1  0  0  0
  2 37  1  0  0  0
  2  3  1  0  0  0
  3  4  1  0  0  0
  4  5  1  0  0  0
  5  8  1  0  0  0
  5  7  1  0  0  0
  5  6  2  0  0  0
  8  9  1  0  0  0
  9 12  1  0  0  0
  9 11  1  0  0  0
  9 10  2  0  0  0
 12 13  1  0  0  0
 13 14  1  0  0  0
 14 17  1  0  0  0
 14 16  1  0  0  0
 14 15  1  0  0  0
 17 19  1  0  0  0
 17 18  1  0  0  0
 19 21  1  0  0  0
 19 20  2  0  0  0
 21 22  1  0  0  0
 22 23  1  0  0  0
 23 24  1  0  0  0
 24 26  1  0  0  0
 24 25  2  0  0  0
 26 27  1  0  0  0
 27 28  1  0  0  0
 28 29  1  0  0  0
 29 30  1  0  0  0
 30 32  1  0  0  0
 30 31  2  0  0  0
 32 33  1  0  0  0
 33 34  1  0  0  0
 34 36  1  0  0  0
 34 35  2  0  0  0
 37 38  1  0  0  0
 38 50  1  0  0  0
 38 40  1  0  0  0
 38 39  1  0  0  0
 40 49  1  0  0  0
 40 41  1  0  0  0
 41 42  2  0  0  0
 42 43  1  0  0  0
 43 49  2  0  0  0
 43 44  1  0  0  0
 44 46  2  0  0  0
 44 45  1  0  0  0
 46 47  1  0  0  0
 47 48  2  0  0  0
 48 49  1  0  0  0
 50 53  1  0  0  0
 50 52  1  0  0  0
 50 51  1  0  0  0
 53 55  1  0  0  0
 53 54  1  0  0  0
 55 56  1  0  0  0
 56 59  1  0  0  0
 56 58  1  0  0  0
 56 57  2  0  0  0
M  END
> <SMILES>
[H]C3(COP(=O)(O)OP(=O)(O)OCC(C)(C)C(O)C(=O)NCCC(=O)NCCSC(=O)CCC(=O)O)(OC([H])(N2C=NC=1C(N)=NC=NC=12)C([H])(O)C3([H])(OP(=O)(O)O))

> <NAME>
SUC-COA

> <BioCyc_link>
http://biocyc.org/HUMAN/NEW-IMAGE?object=SUC-COA

> <BioCyc_name_HTML>
succinyl-CoA

> <CAS>
604-98-8

> <KEGG_ID>
C00091

> <toxTree.tree.cramer.CramerTreeResult>


> <FORMULA>


> <toxTree.tree.cramer.CramerRules>


$$$$
GLYCEROL-3P
 OpenBabel30120812303D

 11 10  0  0  0  0  0  0  0  0999 V2000
    1.0000    0.0000    0.0000 H   0  0  0  0  0
    2.5000    0.0000    0.0000 C   0  0  0  0  0
    2.9931   -0.6977    1.2329 O   0  0  0  0  0
    3.0193   -0.7348   -1.2002 C   0  0  0  0  0
    2.5089   -2.1452   -1.1833 O   0  0  0  0  0
    3.0007    1.4140    0.0000 C   0  0  0  0  0
    4.5007    1.4140    0.0000 O   0  0  0  0  0
    5.0014    2.8279    0.0000 P   0  0  0  0  0
    4.5083    3.5256   -1.2329 O   0  0  0  0  0
    4.4821    3.5627    1.2002 O   0  0  0  0  0
    6.5014    2.8279    0.0000 O   0  0  0  0  0
  1  2  1  0  0  0
  2  6  1  0  0  0
  2  4  1  0  0  0
  2  3  1  0  0  0
  4  5  1  0  0  0
  6  7  1  0  0  0
  7  8  1  0  0  0
  8 11  1  0  0  0
  8 10  1  0  0  0
  8  9  2  0  0  0
M  END
> <SMILES>
[H]C(O)(CO)COP(=O)(O)O

> <NAME>
GLYCEROL-3P

> <BioCyc_link>
http://biocyc.org/HUMAN/NEW-IMAGE?object=GLYCEROL-3P

> <BioCyc_name_HTML>
<i>sn</i>-glycerol-3-phosphate

> <CAS>
57-03-4

> <KEGG_ID>
C00093

> <toxTree.tree.cramer.CramerTreeResult>


> <FORMULA>


> <toxTree.tree.cramer.CramerRules>


$$$$
PROPIONYL-COA
 OpenBabel30120812303D

 56 58  0  0  0  0  0  0  0  0999 V2000
    1.0000    0.0000    0.0000 H   0  0  0  0  0
    2.5000    0.0000    0.0000 C   0  0  0  0  0
    2.9034    0.1217   -1.4396 C   0  0  0  0  0
    4.3999    0.1302   -1.5413 O   0  0  0  0  0
    4.8033    0.2519   -2.9809 P   0  0  0  0  0
    4.2639   -0.9208   -3.7449 O   0  0  0  0  0
    4.2352    1.5066   -3.5751 O   0  0  0  0  0
    6.2998    0.2605   -3.0825 O   0  0  0  0  0
    6.7032    0.3821   -4.5222 P   0  0  0  0  0
    6.1638   -0.7906   -5.2862 O   0  0  0  0  0
    6.1351    1.6368   -5.1164 O   0  0  0  0  0
    8.1997    0.3907   -4.6238 O   0  0  0  0  0
    8.6031    0.5124   -6.0634 C   0  0  0  0  0
   10.0996    0.5210   -6.1651 C   0  0  0  0  0
   10.6390    1.6937   -5.4011 C   0  0  0  0  0
   10.6677   -0.7337   -5.5708 C   0  0  0  0  0
   10.5030    0.6426   -7.6047 C   0  0  0  0  0
    9.9349    1.8973   -8.1989 O   0  0  0  0  0
   11.9995    0.6512   -7.7064 C   0  0  0  0  0
   12.8362    0.5464   -6.4658 O   0  0  0  0  0
   12.6594    0.7647   -9.0486 N   0  0  0  0  0
   14.1560    0.7733   -9.1503 C   0  0  0  0  0
   14.5594    0.8949  -10.5899 C   0  0  0  0  0
   16.0559    0.9035  -10.6915 C   0  0  0  0  0
   16.8925    0.7987   -9.4509 O   0  0  0  0  0
   16.7158    1.0169  -12.0338 N   0  0  0  0  0
   18.2123    1.0255  -12.1355 C   0  0  0  0  0
   18.6157    1.1472  -13.5751 C   0  0  0  0  0
   20.1122    1.1558  -13.6767 S   0  0  0  0  0
   20.5156    1.2774  -15.1163 C   0  0  0  0  0
   19.4661    1.3677  -16.1842 O   0  0  0  0  0
   21.9685    1.3088  -15.4881 C   0  0  0  0  0
   22.1018    1.4346  -16.9768 C   0  0  0  0  0
    3.0599    1.1537    0.8679 O   0  0  0  0  0
    4.4904    0.6582    1.2094 C   0  0  0  0  0
    5.0630    1.3496    2.4111 H   0  0  0  0  0
    5.4454    0.9430    0.0883 N   0  0  0  0  0
    6.1375    0.0329   -0.6155 C   0  0  0  0  0
    6.9010    0.6737   -1.5995 N   0  0  0  0  0
    6.6943    1.9723   -1.5194 C   0  0  0  0  0
    7.1824    3.1454   -2.2447 C   0  0  0  0  0
    8.1503    3.0122   -3.3829 N   0  0  0  0  0
    6.7152    4.3825   -1.8381 N   0  0  0  0  0
    5.8084    4.4812   -0.7884 C   0  0  0  0  0
    5.3597    3.4468   -0.1271 N   0  0  0  0  0
    5.7422    2.1921   -0.4204 C   0  0  0  0  0
    4.3235   -0.8601    1.4286 C   0  0  0  0  0
    4.1957   -1.1812    2.8882 H   0  0  0  0  0
    5.5233   -1.6057    0.9241 O   0  0  0  0  0
    3.0578   -1.2782    0.6595 C   0  0  0  0  0
    2.0467   -1.8906    1.5829 H   0  0  0  0  0
    3.3824   -2.3132   -0.3765 O   0  0  0  0  0
    2.1309   -2.6995   -1.1076 P   0  0  0  0  0
    1.1459   -3.2710   -0.1313 O   0  0  0  0  0
    1.5136   -1.4944   -1.7531 O   0  0  0  0  0
    2.4555   -3.7345   -2.1437 O   0  0  0  0  0
  1  2  1  0  0  0
  2 50  1  0  0  0
  2 34  1  0  0  0
  2  3  1  0  0  0
  3  4  1  0  0  0
  4  5  1  0  0  0
  5  8  1  0  0  0
  5  7  1  0  0  0
  5  6  2  0  0  0
  8  9  1  0  0  0
  9 12  1  0  0  0
  9 11  1  0  0  0
  9 10  2  0  0  0
 12 13  1  0  0  0
 13 14  1  0  0  0
 14 17  1  0  0  0
 14 16  1  0  0  0
 14 15  1  0  0  0
 17 19  1  0  0  0
 17 18  1  0  0  0
 19 21  1  0  0  0
 19 20  2  0  0  0
 21 22  1  0  0  0
 22 23  1  0  0  0
 23 24  1  0  0  0
 24 26  1  0  0  0
 24 25  2  0  0  0
 26 27  1  0  0  0
 27 28  1  0  0  0
 28 29  1  0  0  0
 29 30  1  0  0  0
 30 32  1  0  0  0
 30 31  2  0  0  0
 32 33  1  0  0  0
 34 35  1  0  0  0
 35 47  1  0  0  0
 35 37  1  0  0  0
 35 36  1  0  0  0
 37 46  1  0  0  0
 37 38  1  0  0  0
 38 39  2  0  0  0
 39 40  1  0  0  0
 40 46  2  0  0  0
 40 41  1  0  0  0
 41 43  2  0  0  0
 41 42  1  0  0  0
 43 44  1  0  0  0
 44 45  2  0  0  0
 45 46  1  0  0  0
 47 50  1  0  0  0
 47 49  1  0  0  0
 47 48  1  0  0  0
 50 52  1  0  0  0
 50 51  1  0  0  0
 52 53  1  0  0  0
 53 56  1  0  0  0
 53 55  1  0  0  0
 53 54  2  0  0  0
M  END
> <SMILES>
[H]C3(COP(=O)(O)OP(=O)(O)OCC(C)(C)C(O)C(=O)NCCC(=O)NCCSC(=O)CC)(OC([H])(N2C=NC=1C(N)=NC=NC=12)C([H])(O)C3([H])(OP(=O)(O)O))

> <NAME>
PROPIONYL-COA

> <BioCyc_link>
http://biocyc.org/HUMAN/NEW-IMAGE?object=PROPIONYL-COA

> <BioCyc_name_HTML>
propionyl-CoA

> <CAS>
317-66-8

> <KEGG_ID>
C00100

> <toxTree.tree.cramer.CramerTreeResult>


> <FORMULA>


> <toxTree.tree.cramer.CramerRules>


$$$$
GLC-1-P
 OpenBabel30120812303D

 20 20  0  0  0  0  0  0  0  0999 V2000
    1.0000    0.0000    0.0000 H   0  0  0  0  0
    2.5000    0.0000    0.0000 C   0  0  0  0  0
    2.9688    0.1628    1.4155 O   0  0  0  0  0
    3.0315   -1.3200   -0.5633 C   0  0  0  0  0
    2.6379   -1.4463   -1.9315 O   0  0  0  0  0
    3.1450   -0.4160   -2.7815 C   0  0  0  0  0
    2.6818   -0.6625   -4.1867 H   0  0  0  0  0
    4.6449   -0.4238   -2.7694 C   0  0  0  0  0
    5.1585    0.6633   -3.6664 O   0  0  0  0  0
    2.6181    0.9406   -2.3079 C   0  0  0  0  0
    1.1216    0.9571   -2.4091 H   0  0  0  0  0
    3.1588    2.0403   -3.1730 O   0  0  0  0  0
    3.0321    1.1590   -0.8492 C   0  0  0  0  0
    2.4525    2.4503   -0.3527 H   0  0  0  0  0
    4.5256    1.2439   -0.7383 O   0  0  0  0  0
    2.5069   -2.4752    0.2370 O   0  0  0  0  0
    2.9295   -2.3255    1.6684 P   0  0  0  0  0
    4.4276   -2.3148    1.7417 O   0  0  0  0  0
    2.4183   -1.0312    2.2282 O   0  0  0  0  0
    2.4049   -3.4806    2.4687 O   0  0  0  0  0
  1  2  1  0  0  0
  2 13  1  0  0  0
  2  4  1  0  0  0
  2  3  1  0  0  0
  4  5  1  0  0  0
  4 16  1  0  0  0
  5  6  1  0  0  0
  6 10  1  0  0  0
  6  8  1  0  0  0
  6  7  1  0  0  0
  8  9  1  0  0  0
 10 13  1  0  0  0
 10 12  1  0  0  0
 10 11  1  0  0  0
 13 15  1  0  0  0
 13 14  1  0  0  0
 16 17  1  0  0  0
 17 20  1  0  0  0
 17 19  1  0  0  0
 17 18  2  0  0  0
M  END
> <SMILES>
[H]C1(O)(C(OC([H])(CO)C([H])(O)C1([H])(O))OP(=O)(O)O)

> <NAME>
GLC-1-P

> <BioCyc_link>
http://biocyc.org/HUMAN/NEW-IMAGE?object=GLC-1-P

> <BioCyc_name_HTML>
&alpha;-D-glucose

> <CAS>
59-56-3

> <KEGG_ID>
C00103

> <toxTree.tree.cramer.CramerTreeResult>


> <FORMULA>


> <toxTree.tree.cramer.CramerRules>


$$$$
RIBOSE-5P
 OpenBabel30120812303D

 17 17  0  0  0  0  0  0  0  0999 V2000
    1.0000    0.0000    0.0000 H   0  0  0  0  0
    2.5000    0.0000    0.0000 C   0  0  0  0  0
    2.9034    0.1217   -1.4396 O   0  0  0  0  0
    3.0599    1.1537    0.8679 C   0  0  0  0  0
    2.2387    1.3587    2.1063 O   0  0  0  0  0
    4.4904    0.6582    1.2094 O   0  0  0  0  0
    4.3235   -0.8601    1.4286 C   0  0  0  0  0
    4.1957   -1.1812    2.8882 H   0  0  0  0  0
    5.5233   -1.6057    0.9241 C   0  0  0  0  0
    5.3310   -3.0759    1.1509 O   0  0  0  0  0
    6.5309   -3.8215    0.6465 P   0  0  0  0  0
    6.6883   -3.5658   -0.8232 O   0  0  0  0  0
    7.7697   -3.3458    1.3457 O   0  0  0  0  0
    6.3386   -5.2917    0.8733 O   0  0  0  0  0
    3.0578   -1.2782    0.6595 C   0  0  0  0  0
    2.0467   -1.8906    1.5829 H   0  0  0  0  0
    3.3824   -2.3132   -0.3765 O   0  0  0  0  0
  1  2  1  0  0  0
  2 15  1  0  0  0
  2  4  1  0  0  0
  2  3  1  0  0  0
  4  6  1  0  0  0
  4  5  1  0  0  0
  6  7  1  0  0  0
  7 15  1  0  0  0
  7  9  1  0  0  0
  7  8  1  0  0  0
  9 10  1  0  0  0
 10 11  1  0  0  0
 11 14  1  0  0  0
 11 13  1  0  0  0
 11 12  2  0  0  0
 15 17  1  0  0  0
 15 16  1  0  0  0
M  END
> <SMILES>
[H]C1(O)(C(O)OC([H])(COP(=O)(O)O)C1([H])(O))

> <NAME>
RIBOSE-5P

> <BioCyc_link>
http://biocyc.org/HUMAN/NEW-IMAGE?object=RIBOSE-5P

> <BioCyc_name_HTML>
D-ribose-5-phosphate

> <CAS>
4300-28-1

> <KEGG_ID>
C00117

> <toxTree.tree.cramer.CramerTreeResult>


> <FORMULA>


> <toxTree.tree.cramer.CramerRules>


$$$$
BUTYRYL-COA
 OpenBabel30120812303D

 57 59  0  0  0  0  0  0  0  0999 V2000
    1.0000    0.0000    0.0000 H   0  0  0  0  0
    2.5000    0.0000    0.0000 C   0  0  0  0  0
    2.9034    0.1217   -1.4396 C   0  0  0  0  0
    4.3999    0.1302   -1.5413 O   0  0  0  0  0
    4.8033    0.2519   -2.9809 P   0  0  0  0  0
    4.2639   -0.9208   -3.7449 O   0  0  0  0  0
    4.2352    1.5066   -3.5751 O   0  0  0  0  0
    6.2998    0.2605   -3.0825 O   0  0  0  0  0
    6.7032    0.3821   -4.5222 P   0  0  0  0  0
    6.1638   -0.7906   -5.2862 O   0  0  0  0  0
    6.1351    1.6368   -5.1164 O   0  0  0  0  0
    8.1997    0.3907   -4.6238 O   0  0  0  0  0
    8.6031    0.5124   -6.0634 C   0  0  0  0  0
   10.0996    0.5210   -6.1651 C   0  0  0  0  0
   10.6390    1.6937   -5.4011 C   0  0  0  0  0
   10.6677   -0.7337   -5.5708 C   0  0  0  0  0
   10.5030    0.6426   -7.6047 C   0  0  0  0  0
    9.9349    1.8973   -8.1989 O   0  0  0  0  0
   11.9995    0.6512   -7.7064 C   0  0  0  0  0
   12.8362    0.5464   -6.4658 O   0  0  0  0  0
   12.6594    0.7647   -9.0486 N   0  0  0  0  0
   14.1560    0.7733   -9.1503 C   0  0  0  0  0
   14.5594    0.8949  -10.5899 C   0  0  0  0  0
   16.0559    0.9035  -10.6915 C   0  0  0  0  0
   16.8925    0.7987   -9.4509 O   0  0  0  0  0
   16.7158    1.0169  -12.0338 N   0  0  0  0  0
   18.2123    1.0255  -12.1355 C   0  0  0  0  0
   18.6157    1.1472  -13.5751 C   0  0  0  0  0
   20.1122    1.1558  -13.6767 S   0  0  0  0  0
   20.5156    1.2774  -15.1163 C   0  0  0  0  0
   19.4661    1.3677  -16.1842 O   0  0  0  0  0
   21.9685    1.3088  -15.4881 C   0  0  0  0  0
   22.1018    1.4346  -16.9768 C   0  0  0  0  0
   23.5547    1.4661  -17.3485 C   0  0  0  0  0
    3.0599    1.1537    0.8679 O   0  0  0  0  0
    4.4904    0.6582    1.2094 C   0  0  0  0  0
    5.0630    1.3496    2.4111 H   0  0  0  0  0
    5.4454    0.9430    0.0883 N   0  0  0  0  0
    6.1375    0.0329   -0.6155 C   0  0  0  0  0
    6.9010    0.6737   -1.5995 N   0  0  0  0  0
    6.6943    1.9723   -1.5194 C   0  0  0  0  0
    7.1824    3.1454   -2.2447 C   0  0  0  0  0
    8.1503    3.0122   -3.3829 N   0  0  0  0  0
    6.7152    4.3825   -1.8381 N   0  0  0  0  0
    5.8084    4.4812   -0.7884 C   0  0  0  0  0
    5.3597    3.4468   -0.1271 N   0  0  0  0  0
    5.7422    2.1921   -0.4204 C   0  0  0  0  0
    4.3235   -0.8601    1.4286 C   0  0  0  0  0
    4.1957   -1.1812    2.8882 H   0  0  0  0  0
    5.5233   -1.6057    0.9241 O   0  0  0  0  0
    3.0578   -1.2782    0.6595 C   0  0  0  0  0
    2.0467   -1.8906    1.5829 H   0  0  0  0  0
    3.3824   -2.3132   -0.3765 O   0  0  0  0  0
    2.1309   -2.6995   -1.1076 P   0  0  0  0  0
    1.1459   -3.2710   -0.1313 O   0  0  0  0  0
    1.5136   -1.4944   -1.7531 O   0  0  0  0  0
    2.4555   -3.7345   -2.1437 O   0  0  0  0  0
  1  2  1  0  0  0
  2 51  1  0  0  0
  2 35  1  0  0  0
  2  3  1  0  0  0
  3  4  1  0  0  0
  4  5  1  0  0  0
  5  8  1  0  0  0
  5  7  1  0  0  0
  5  6  2  0  0  0
  8  9  1  0  0  0
  9 12  1  0  0  0
  9 11  1  0  0  0
  9 10  2  0  0  0
 12 13  1  0  0  0
 13 14  1  0  0  0
 14 17  1  0  0  0
 14 16  1  0  0  0
 14 15  1  0  0  0
 17 19  1  0  0  0
 17 18  1  0  0  0
 19 21  1  0  0  0
 19 20  2  0  0  0
 21 22  1  0  0  0
 22 23  1  0  0  0
 23 24  1  0  0  0
 24 26  1  0  0  0
 24 25  2  0  0  0
 26 27  1  0  0  0
 27 28  1  0  0  0
 28 29  1  0  0  0
 29 30  1  0  0  0
 30 32  1  0  0  0
 30 31  2  0  0  0
 32 33  1  0  0  0
 33 34  1  0  0  0
 35 36  1  0  0  0
 36 48  1  0  0  0
 36 38  1  0  0  0
 36 37  1  0  0  0
 38 47  1  0  0  0
 38 39  1  0  0  0
 39 40  2  0  0  0
 40 41  1  0  0  0
 41 47  2  0  0  0
 41 42  1  0  0  0
 42 44  2  0  0  0
 42 43  1  0  0  0
 44 45  1  0  0  0
 45 46  2  0  0  0
 46 47  1  0  0  0
 48 51  1  0  0  0
 48 50  1  0  0  0
 48 49  1  0  0  0
 51 53  1  0  0  0
 51 52  1  0  0  0
 53 54  1  0  0  0
 54 57  1  0  0  0
 54 56  1  0  0  0
 54 55  2  0  0  0
M  END
> <SMILES>
[H]C3(COP(=O)(O)OP(=O)(O)OCC(C)(C)C(O)C(=O)NCCC(=O)NCCSC(=O)CCC)(OC([H])(N2C=NC=1C(N)=NC=NC=12)C([H])(O)C3([H])(OP(=O)(O)O))

> <NAME>
BUTYRYL-COA

> <BioCyc_link>
http://biocyc.org/HUMAN/NEW-IMAGE?object=BUTYRYL-COA

> <BioCyc_name_HTML>
butyryl-CoA

> <CAS>
2140-48-9

> <KEGG_ID>
C00136

> <toxTree.tree.cramer.CramerTreeResult>


> <FORMULA>


> <toxTree.tree.cramer.CramerRules>


$$$$
G3P
 OpenBabel30120812303D

 12 11  0  0  0  0  0  0  0  0999 V2000
    1.0000    0.0000    0.0000 H   0  0  0  0  0
    2.5000    0.0000    0.0000 C   0  0  0  0  0
    2.9931   -0.6977    1.2329 O   0  0  0  0  0
    3.0193   -0.7348   -1.2002 C   0  0  0  0  0
    2.5089   -2.1452   -1.1833 O   0  0  0  0  0
    3.0282   -2.8800   -2.3834 P   0  0  0  0  0
    2.5451   -2.1957   -3.6277 O   0  0  0  0  0
    4.5282   -2.8706   -2.3892 O   0  0  0  0  0
    2.5178   -4.2904   -2.3666 O   0  0  0  0  0
    3.0007    1.4140    0.0000 C   0  0  0  0  0
    2.0265    2.5546    0.0000 O   0  0  0  0  0
    4.4756    1.6873    0.0000 O   0  0  0  0  0
  1  2  1  0  0  0
  2 10  1  0  0  0
  2  4  1  0  0  0
  2  3  1  0  0  0
  4  5  1  0  0  0
  5  6  1  0  0  0
  6  9  1  0  0  0
  6  8  1  0  0  0
  6  7  2  0  0  0
 10 12  1  0  0  0
 10 11  2  0  0  0
M  END
> <SMILES>
[H]C(O)(COP(=O)(O)O)C(=O)O

> <NAME>
G3P

> <BioCyc_link>
http://biocyc.org/HUMAN/NEW-IMAGE?object=G3P

> <BioCyc_name_HTML>
3-phosphoglycerate

> <CAS>
820-11-1

> <KEGG_ID>
C00197

> <toxTree.tree.cramer.CramerTreeResult>


> <FORMULA>


> <toxTree.tree.cramer.CramerRules>


$$$$
RIBULOSE-5P
 OpenBabel30120812303D

 16 15  0  0  0  0  0  0  0  0999 V2000
    1.0000    0.0000    0.0000 H   0  0  0  0  0
    2.5000    0.0000    0.0000 C   0  0  0  0  0
    2.9931   -0.6977    1.2329 O   0  0  0  0  0
    3.0193   -0.7348   -1.2002 C   0  0  0  0  0
    2.5089   -2.1452   -1.1833 O   0  0  0  0  0
    3.0282   -2.8800   -2.3834 P   0  0  0  0  0
    2.5451   -2.1957   -3.6277 O   0  0  0  0  0
    4.5282   -2.8706   -2.3892 O   0  0  0  0  0
    2.5178   -4.2904   -2.3666 O   0  0  0  0  0
    3.0007    1.4140    0.0000 C   0  0  0  0  0
    2.5076    2.1117   -1.2329 H   0  0  0  0  0
    2.4814    2.1488    1.2002 O   0  0  0  0  0
    4.5007    1.4140    0.0000 C   0  0  0  0  0
    5.2507    0.1149    0.0000 O   0  0  0  0  0
    5.2507    2.7130    0.0000 C   0  0  0  0  0
    6.7256    2.4396    0.0000 O   0  0  0  0  0
  1  2  1  0  0  0
  2 10  1  0  0  0
  2  4  1  0  0  0
  2  3  1  0  0  0
  4  5  1  0  0  0
  5  6  1  0  0  0
  6  9  1  0  0  0
  6  8  1  0  0  0
  6  7  2  0  0  0
 10 13  1  0  0  0
 10 12  1  0  0  0
 10 11  1  0  0  0
 13 15  1  0  0  0
 13 14  2  0  0  0
 15 16  1  0  0  0
M  END
> <SMILES>
[H]C(O)(COP(=O)(O)O)C([H])(O)C(=O)CO

> <NAME>
RIBULOSE-5P

> <BioCyc_link>
http://biocyc.org/HUMAN/NEW-IMAGE?object=RIBULOSE-5P

> <BioCyc_name_HTML>
D-ribulose-5-phosphate

> <CAS>
4151-19-3

> <KEGG_ID>
C00199

> <toxTree.tree.cramer.CramerTreeResult>


> <FORMULA>


> <toxTree.tree.cramer.CramerRules>


$$$$
XYLULOSE-5-PHOSPHATE
 OpenBabel30120812303D

 16 15  0  0  0  0  0  0  0  0999 V2000
    1.0000    0.0000    0.0000 H   0  0  0  0  0
    2.5000    0.0000    0.0000 C   0  0  0  0  0
    2.9931   -0.6977    1.2329 O   0  0  0  0  0
    3.0193   -0.7348   -1.2002 C   0  0  0  0  0
    2.5089   -2.1452   -1.1833 O   0  0  0  0  0
    3.0282   -2.8800   -2.3834 P   0  0  0  0  0
    2.5451   -2.1957   -3.6277 O   0  0  0  0  0
    4.5282   -2.8706   -2.3892 O   0  0  0  0  0
    2.5178   -4.2904   -2.3666 O   0  0  0  0  0
    3.0007    1.4140    0.0000 C   0  0  0  0  0
    2.5076    2.1117   -1.2329 H   0  0  0  0  0
    2.4814    2.1488    1.2002 O   0  0  0  0  0
    4.5007    1.4140    0.0000 C   0  0  0  0  0
    5.2507    0.1149    0.0000 O   0  0  0  0  0
    5.2507    2.7130    0.0000 C   0  0  0  0  0
    6.7256    2.4396    0.0000 O   0  0  0  0  0
  1  2  1  0  0  0
  2 10  1  0  0  0
  2  4  1  0  0  0
  2  3  1  0  0  0
  4  5  1  0  0  0
  5  6  1  0  0  0
  6  9  1  0  0  0
  6  8  1  0  0  0
  6  7  2  0  0  0
 10 13  1  0  0  0
 10 12  1  0  0  0
 10 11  1  0  0  0
 13 15  1  0  0  0
 13 14  2  0  0  0
 15 16  1  0  0  0
M  END
> <SMILES>
[H]C(O)(COP(=O)(O)O)C([H])(O)C(=O)CO

> <NAME>
XYLULOSE-5-PHOSPHATE

> <BioCyc_link>
http://biocyc.org/HUMAN/NEW-IMAGE?object=XYLULOSE-5-PHOSPHATE

> <BioCyc_name_HTML>
D-xylulose-5-phosphate

> <CAS>
60802-29-1

> <KEGG_ID>
C00231

> <toxTree.tree.cramer.CramerTreeResult>


> <FORMULA>


> <toxTree.tree.cramer.CramerRules>


$$$$
DPG
 OpenBabel30120812303D

 16 15  0  0  0  0  0  0  0  0999 V2000
    1.0000    0.0000    0.0000 H   0  0  0  0  0
    2.5000    0.0000    0.0000 C   0  0  0  0  0
    2.9931   -0.6977    1.2329 O   0  0  0  0  0
    3.0193   -0.7348   -1.2002 C   0  0  0  0  0
    2.5089   -2.1452   -1.1833 O   0  0  0  0  0
    3.0282   -2.8800   -2.3834 P   0  0  0  0  0
    2.5451   -2.1957   -3.6277 O   0  0  0  0  0
    4.5282   -2.8706   -2.3892 O   0  0  0  0  0
    2.5178   -4.2904   -2.3666 O   0  0  0  0  0
    3.0007    1.4140    0.0000 C   0  0  0  0  0
    2.0265    2.5546    0.0000 O   0  0  0  0  0
    4.4756    1.6873    0.0000 O   0  0  0  0  0
    4.9763    3.1013    0.0000 P   0  0  0  0  0
    4.4832    3.7990   -1.2329 O   0  0  0  0  0
    4.4570    3.8361    1.2002 O   0  0  0  0  0
    6.4763    3.1013    0.0000 O   0  0  0  0  0
  1  2  1  0  0  0
  2 10  1  0  0  0
  2  4  1  0  0  0
  2  3  1  0  0  0
  4  5  1  0  0  0
  5  6  1  0  0  0
  6  9  1  0  0  0
  6  8  1  0  0  0
  6  7  2  0  0  0
 10 12  1  0  0  0
 10 11  2  0  0  0
 12 13  1  0  0  0
 13 16  1  0  0  0
 13 15  1  0  0  0
 13 14  2  0  0  0
M  END
> <SMILES>
[H]C(O)(COP(=O)(O)O)C(=O)OP(=O)(O)O

> <NAME>
DPG

> <BioCyc_link>
http://biocyc.org/HUMAN/NEW-IMAGE?object=DPG

> <BioCyc_name_HTML>
1,3-diphosphateglycerate

> <CAS>
1981-49-3

> <KEGG_ID>
C00236

> <toxTree.tree.cramer.CramerTreeResult>


> <FORMULA>


> <toxTree.tree.cramer.CramerRules>


$$$$
MANNOSE-6P
 OpenBabel30120812303D

 21 21  0  0  0  0  0  0  0  0999 V2000
    1.0000    0.0000    0.0000 H   0  0  0  0  0
    2.5000    0.0000    0.0000 C   0  0  0  0  0
    2.9688    0.1628    1.4155 O   0  0  0  0  0
    3.0315   -1.3200   -0.5633 O   0  0  0  0  0
    2.6379   -1.4463   -1.9315 C   0  0  0  0  0
    1.1440   -1.3129   -1.9536 H   0  0  0  0  0
    3.0711   -2.7838   -2.4545 C   0  0  0  0  0
    2.6585   -2.9175   -3.8904 O   0  0  0  0  0
    3.0918   -4.2549   -4.4134 P   0  0  0  0  0
    4.5849   -4.3618   -4.3174 O   0  0  0  0  0
    2.4842   -5.3546   -3.5940 O   0  0  0  0  0
    2.6792   -4.3886   -5.8493 O   0  0  0  0  0
    3.1450   -0.4160   -2.7815 C   0  0  0  0  0
    2.6818   -0.6625   -4.1867 H   0  0  0  0  0
    4.6449   -0.4238   -2.7694 O   0  0  0  0  0
    2.6181    0.9406   -2.3079 C   0  0  0  0  0
    1.1216    0.9571   -2.4091 H   0  0  0  0  0
    3.1588    2.0403   -3.1730 O   0  0  0  0  0
    3.0321    1.1590   -0.8492 C   0  0  0  0  0
    2.4525    2.4503   -0.3527 H   0  0  0  0  0
    4.5256    1.2439   -0.7383 O   0  0  0  0  0
  1  2  1  0  0  0
  2 19  1  0  0  0
  2  4  1  0  0  0
  2  3  1  0  0  0
  4  5  1  0  0  0
  5 13  1  0  0  0
  5  7  1  0  0  0
  5  6  1  0  0  0
  7  8  1  0  0  0
  8  9  1  0  0  0
  9 12  1  0  0  0
  9 11  1  0  0  0
  9 10  2  0  0  0
 13 16  1  0  0  0
 13 15  1  0  0  0
 13 14  1  0  0  0
 16 19  1  0  0  0
 16 18  1  0  0  0
 16 17  1  0  0  0
 19 21  1  0  0  0
 19 20  1  0  0  0
M  END
> <SMILES>
[H]C1(O)(OC([H])(COP(=O)(O)O)C([H])(O)C([H])(O)C1([H])(O))

> <NAME>
MANNOSE-6P

> <BioCyc_link>
http://biocyc.org/HUMAN/NEW-IMAGE?object=MANNOSE-6P

> <BioCyc_name_HTML>
D-mannose-6-phosphate

> <CAS>
3672-15-9

> <KEGG_ID>
C00275

> <toxTree.tree.cramer.CramerTreeResult>


> <FORMULA>


> <toxTree.tree.cramer.CramerRules>


$$$$
ACETOACETYL-COA
 OpenBabel30120812303D

 58 60  0  0  0  0  0  0  0  0999 V2000
    1.0000    0.0000    0.0000 H   0  0  0  0  0
    2.5000    0.0000    0.0000 C   0  0  0  0  0
    2.9034    0.1217   -1.4396 C   0  0  0  0  0
    4.3999    0.1302   -1.5413 O   0  0  0  0  0
    4.8033    0.2519   -2.9809 P   0  0  0  0  0
    4.2639   -0.9208   -3.7449 O   0  0  0  0  0
    4.2352    1.5066   -3.5751 O   0  0  0  0  0
    6.2998    0.2605   -3.0825 O   0  0  0  0  0
    6.7032    0.3821   -4.5222 P   0  0  0  0  0
    6.1638   -0.7906   -5.2862 O   0  0  0  0  0
    6.1351    1.6368   -5.1164 O   0  0  0  0  0
    8.1997    0.3907   -4.6238 O   0  0  0  0  0
    8.6031    0.5124   -6.0634 C   0  0  0  0  0
   10.0996    0.5210   -6.1651 C   0  0  0  0  0
   10.6390    1.6937   -5.4011 C   0  0  0  0  0
   10.6677   -0.7337   -5.5708 C   0  0  0  0  0
   10.5030    0.6426   -7.6047 C   0  0  0  0  0
    9.9349    1.8973   -8.1989 O   0  0  0  0  0
   11.9995    0.6512   -7.7064 C   0  0  0  0  0
   12.8362    0.5464   -6.4658 O   0  0  0  0  0
   12.6594    0.7647   -9.0486 N   0  0  0  0  0
   14.1560    0.7733   -9.1503 C   0  0  0  0  0
   14.5594    0.8949  -10.5899 C   0  0  0  0  0
   16.0559    0.9035  -10.6915 C   0  0  0  0  0
   16.8925    0.7987   -9.4509 O   0  0  0  0  0
   16.7158    1.0169  -12.0338 N   0  0  0  0  0
   18.2123    1.0255  -12.1355 C   0  0  0  0  0
   18.6157    1.1472  -13.5751 C   0  0  0  0  0
   20.1122    1.1558  -13.6767 S   0  0  0  0  0
   20.5156    1.2774  -15.1163 C   0  0  0  0  0
   19.4661    1.3677  -16.1842 O   0  0  0  0  0
   21.9685    1.3088  -15.4881 C   0  0  0  0  0
   22.1018    1.4346  -16.9768 C   0  0  0  0  0
   20.8746    1.5073  -17.8363 C   0  0  0  0  0
   23.4624    1.4878  -17.6061 O   0  0  0  0  0
    3.0599    1.1537    0.8679 O   0  0  0  0  0
    4.4904    0.6582    1.2094 C   0  0  0  0  0
    5.0630    1.3496    2.4111 H   0  0  0  0  0
    5.4454    0.9430    0.0883 N   0  0  0  0  0
    6.1375    0.0329   -0.6155 C   0  0  0  0  0
    6.9010    0.6737   -1.5995 N   0  0  0  0  0
    6.6943    1.9723   -1.5194 C   0  0  0  0  0
    7.1824    3.1454   -2.2447 C   0  0  0  0  0
    8.1503    3.0122   -3.3829 N   0  0  0  0  0
    6.7152    4.3825   -1.8381 N   0  0  0  0  0
    5.8084    4.4812   -0.7884 C   0  0  0  0  0
    5.3597    3.4468   -0.1271 N   0  0  0  0  0
    5.7422    2.1921   -0.4204 C   0  0  0  0  0
    4.3235   -0.8601    1.4286 C   0  0  0  0  0
    4.1957   -1.1812    2.8882 H   0  0  0  0  0
    5.5233   -1.6057    0.9241 O   0  0  0  0  0
    3.0578   -1.2782    0.6595 C   0  0  0  0  0
    2.0467   -1.8906    1.5829 H   0  0  0  0  0
    3.3824   -2.3132   -0.3765 O   0  0  0  0  0
    2.1309   -2.6995   -1.1076 P   0  0  0  0  0
    1.1459   -3.2710   -0.1313 O   0  0  0  0  0
    1.5136   -1.4944   -1.7531 O   0  0  0  0  0
    2.4555   -3.7345   -2.1437 O   0  0  0  0  0
  1  2  1  0  0  0
  2 52  1  0  0  0
  2 36  1  0  0  0
  2  3  1  0  0  0
  3  4  1  0  0  0
  4  5  1  0  0  0
  5  8  1  0  0  0
  5  7  1  0  0  0
  5  6  2  0  0  0
  8  9  1  0  0  0
  9 12  1  0  0  0
  9 11  1  0  0  0
  9 10  2  0  0  0
 12 13  1  0  0  0
 13 14  1  0  0  0
 14 17  1  0  0  0
 14 16  1  0  0  0
 14 15  1  0  0  0
 17 19  1  0  0  0
 17 18  1  0  0  0
 19 21  1  0  0  0
 19 20  2  0  0  0
 21 22  1  0  0  0
 22 23  1  0  0  0
 23 24  1  0  0  0
 24 26  1  0  0  0
 24 25  2  0  0  0
 26 27  1  0  0  0
 27 28  1  0  0  0
 28 29  1  0  0  0
 29 30  1  0  0  0
 30 32  1  0  0  0
 30 31  2  0  0  0
 32 33  1  0  0  0
 33 35  2  0  0  0
 33 34  1  0  0  0
 36 37  1  0  0  0
 37 49  1  0  0  0
 37 39  1  0  0  0
 37 38  1  0  0  0
 39 48  1  0  0  0
 39 40  1  0  0  0
 40 41  2  0  0  0
 41 42  1  0  0  0
 42 48  2  0  0  0
 42 43  1  0  0  0
 43 45  2  0  0  0
 43 44  1  0  0  0
 45 46  1  0  0  0
 46 47  2  0  0  0
 47 48  1  0  0  0
 49 52  1  0  0  0
 49 51  1  0  0  0
 49 50  1  0  0  0
 52 54  1  0  0  0
 52 53  1  0  0  0
 54 55  1  0  0  0
 55 58  1  0  0  0
 55 57  1  0  0  0
 55 56  2  0  0  0
M  END
> <SMILES>
[H]C3(COP(=O)(O)OP(=O)(O)OCC(C)(C)C(O)C(=O)NCCC(=O)NCCSC(=O)CC(C)=O)(OC([H])(N2C=NC=1C(N)=NC=NC=12)C([H])(O)C3([H])(OP(=O)(O)O))

> <NAME>
ACETOACETYL-COA

> <BioCyc_link>
http://biocyc.org/HUMAN/NEW-IMAGE?object=ACETOACETYL-COA

> <BioCyc_name_HTML>
acetoacetyl-CoA

> <CAS>
1420-36-6

> <KEGG_ID>
C00332

> <toxTree.tree.cramer.CramerTreeResult>


> <FORMULA>


> <toxTree.tree.cramer.CramerRules>


$$$$
D-GLUCOSAMINE-6-P
 OpenBabel30120812303D

 21 21  0  0  0  0  0  0  0  0999 V2000
    1.0000    0.0000    0.0000 H   0  0  0  0  0
    2.5000    0.0000    0.0000 C   0  0  0  0  0
    2.9688    0.1628    1.4155 N   0  0  0  0  0
    3.0315   -1.3200   -0.5633 C   0  0  0  0  0
    4.5290   -1.3263   -0.4777 H   0  0  0  0  0
    2.5069   -2.4752    0.2370 O   0  0  0  0  0
    2.6379   -1.4463   -1.9315 O   0  0  0  0  0
    3.1450   -0.4160   -2.7815 C   0  0  0  0  0
    2.6818   -0.6625   -4.1867 H   0  0  0  0  0
    4.6449   -0.4238   -2.7694 C   0  0  0  0  0
    5.1585    0.6633   -3.6664 O   0  0  0  0  0
    6.6584    0.6555   -3.6543 P   0  0  0  0  0
    7.1416    0.9009   -2.2556 O   0  0  0  0  0
    7.1745   -0.6783   -4.1068 O   0  0  0  0  0
    7.1720    1.7425   -4.5512 O   0  0  0  0  0
    2.6181    0.9406   -2.3079 C   0  0  0  0  0
    1.1216    0.9571   -2.4091 H   0  0  0  0  0
    3.1588    2.0403   -3.1730 O   0  0  0  0  0
    3.0321    1.1590   -0.8492 C   0  0  0  0  0
    2.4525    2.4503   -0.3527 H   0  0  0  0  0
    4.5256    1.2439   -0.7383 O   0  0  0  0  0
  1  2  1  0  0  0
  2 19  1  0  0  0
  2  4  1  0  0  0
  2  3  1  0  0  0
  4  7  1  0  0  0
  4  6  1  0  0  0
  4  5  1  0  0  0
  7  8  1  0  0  0
  8 16  1  0  0  0
  8 10  1  0  0  0
  8  9  1  0  0  0
 10 11  1  0  0  0
 11 12  1  0  0  0
 12 15  1  0  0  0
 12 14  1  0  0  0
 12 13  2  0  0  0
 16 19  1  0  0  0
 16 18  1  0  0  0
 16 17  1  0  0  0
 19 21  1  0  0  0
 19 20  1  0  0  0
M  END
> <SMILES>
[H]C1(N)(C([H])(O)OC([H])(COP(=O)(O)O)C([H])(O)C1([H])(O))

> <NAME>
D-GLUCOSAMINE-6-P

> <BioCyc_link>
http://biocyc.org/HUMAN/NEW-IMAGE?object=D-GLUCOSAMINE-6-P

> <BioCyc_name_HTML>
D-glucosamine-6-phosphate

> <CAS>
3616-42-0

> <KEGG_ID>
C00352

> <toxTree.tree.cramer.CramerTreeResult>


> <FORMULA>


> <toxTree.tree.cramer.CramerRules>


$$$$
N-ACETYL-D-GLUCOSAMINE-6-P
 OpenBabel30120812303D

 24 24  0  0  0  0  0  0  0  0999 V2000
    1.0000    0.0000    0.0000 H   0  0  0  0  0
    2.5000    0.0000    0.0000 C   0  0  0  0  0
    2.9688    0.1628    1.4155 O   0  0  0  0  0
    3.0315   -1.3200   -0.5633 O   0  0  0  0  0
    2.6379   -1.4463   -1.9315 C   0  0  0  0  0
    1.1440   -1.3129   -1.9536 H   0  0  0  0  0
    3.0711   -2.7838   -2.4545 C   0  0  0  0  0
    2.6585   -2.9175   -3.8904 O   0  0  0  0  0
    3.0918   -4.2549   -4.4134 P   0  0  0  0  0
    4.5849   -4.3618   -4.3174 O   0  0  0  0  0
    2.4842   -5.3546   -3.5940 O   0  0  0  0  0
    2.6792   -4.3886   -5.8493 O   0  0  0  0  0
    3.1450   -0.4160   -2.7815 C   0  0  0  0  0
    2.6818   -0.6625   -4.1867 H   0  0  0  0  0
    4.6449   -0.4238   -2.7694 O   0  0  0  0  0
    2.6181    0.9406   -2.3079 C   0  0  0  0  0
    1.1216    0.9571   -2.4091 H   0  0  0  0  0
    3.1588    2.0403   -3.1730 O   0  0  0  0  0
    3.0321    1.1590   -0.8492 C   0  0  0  0  0
    2.4525    2.4503   -0.3527 H   0  0  0  0  0
    4.5256    1.2439   -0.7383 N   0  0  0  0  0
    5.1673    1.4566    0.6007 C   0  0  0  0  0
    4.3155    1.5844    1.8288 C   0  0  0  0  0
    6.6608    1.5415    0.7116 O   0  0  0  0  0
  1  2  1  0  0  0
  2 19  1  0  0  0
  2  4  1  0  0  0
  2  3  1  0  0  0
  4  5  1  0  0  0
  5 13  1  0  0  0
  5  7  1  0  0  0
  5  6  1  0  0  0
  7  8  1  0  0  0
  8  9  1  0  0  0
  9 12  1  0  0  0
  9 11  1  0  0  0
  9 10  2  0  0  0
 13 16  1  0  0  0
 13 15  1  0  0  0
 13 14  1  0  0  0
 16 19  1  0  0  0
 16 18  1  0  0  0
 16 17  1  0  0  0
 19 21  1  0  0  0
 19 20  1  0  0  0
 21 22  1  0  0  0
 22 24  2  0  0  0
 22 23  1  0  0  0
M  END
> <SMILES>
[H]C1(O)(OC([H])(COP(=O)(O)O)C([H])(O)C([H])(O)C1([H])(NC(C)=O))

> <NAME>
N-ACETYL-D-GLUCOSAMINE-6-P

> <BioCyc_link>
http://biocyc.org/HUMAN/NEW-IMAGE?object=N-ACETYL-D-GLUCOSAMINE-6-P

> <BioCyc_name_HTML>
<i>N</i>-acetyl-D-glucosamine-6-phosphate

> <CAS>
102029-88-9

> <KEGG_ID>
C00357

> <toxTree.tree.cramer.CramerTreeResult>


> <FORMULA>


> <toxTree.tree.cramer.CramerRules>


$$$$
STEAROYL-COA
 OpenBabel30120812303D

 71 73  0  0  0  0  0  0  0  0999 V2000
    1.0000    0.0000    0.0000 H   0  0  0  0  0
    2.5000    0.0000    0.0000 C   0  0  0  0  0
    2.9034    0.1217   -1.4396 C   0  0  0  0  0
    4.3999    0.1302   -1.5413 O   0  0  0  0  0
    4.8033    0.2519   -2.9809 P   0  0  0  0  0
    4.2639   -0.9208   -3.7449 O   0  0  0  0  0
    4.2352    1.5066   -3.5751 O   0  0  0  0  0
    6.2998    0.2605   -3.0825 O   0  0  0  0  0
    6.7032    0.3821   -4.5222 P   0  0  0  0  0
    6.1638   -0.7906   -5.2862 O   0  0  0  0  0
    6.1351    1.6368   -5.1164 O   0  0  0  0  0
    8.1997    0.3907   -4.6238 O   0  0  0  0  0
    8.6031    0.5124   -6.0634 C   0  0  0  0  0
   10.0996    0.5210   -6.1651 C   0  0  0  0  0
   10.6390    1.6937   -5.4011 C   0  0  0  0  0
   10.6677   -0.7337   -5.5708 C   0  0  0  0  0
   10.5030    0.6426   -7.6047 C   0  0  0  0  0
    9.9349    1.8973   -8.1989 O   0  0  0  0  0
   11.9995    0.6512   -7.7064 C   0  0  0  0  0
   12.8362    0.5464   -6.4658 O   0  0  0  0  0
   12.6594    0.7647   -9.0486 N   0  0  0  0  0
   14.1560    0.7733   -9.1503 C   0  0  0  0  0
   14.5594    0.8949  -10.5899 C   0  0  0  0  0
   16.0559    0.9035  -10.6915 C   0  0  0  0  0
   16.8925    0.7987   -9.4509 O   0  0  0  0  0
   16.7158    1.0169  -12.0338 N   0  0  0  0  0
   18.2123    1.0255  -12.1355 C   0  0  0  0  0
   18.6157    1.1472  -13.5751 C   0  0  0  0  0
   20.1122    1.1558  -13.6767 S   0  0  0  0  0
   20.5156    1.2774  -15.1163 C   0  0  0  0  0
   19.4661    1.3677  -16.1842 O   0  0  0  0  0
   21.9685    1.3088  -15.4881 C   0  0  0  0  0
   22.1018    1.4346  -16.9768 C   0  0  0  0  0
   23.5547    1.4661  -17.3485 C   0  0  0  0  0
   23.6880    1.5919  -18.8373 C   0  0  0  0  0
   25.1409    1.6233  -19.2090 C   0  0  0  0  0
   25.2743    1.7491  -20.6977 C   0  0  0  0  0
   26.7271    1.7805  -21.0694 C   0  0  0  0  0
   26.8605    1.9063  -22.5582 C   0  0  0  0  0
   28.3134    1.9377  -22.9299 C   0  0  0  0  0
   28.4467    2.0635  -24.4187 C   0  0  0  0  0
   29.8996    2.0949  -24.7904 C   0  0  0  0  0
   30.0329    2.2207  -26.2791 C   0  0  0  0  0
   31.4858    2.2522  -26.6508 C   0  0  0  0  0
   31.6191    2.3780  -28.1396 C   0  0  0  0  0
   33.0720    2.4094  -28.5113 C   0  0  0  0  0
   33.2054    2.5352  -30.0001 C   0  0  0  0  0
   34.6582    2.5666  -30.3718 C   0  0  0  0  0
    3.0599    1.1537    0.8679 O   0  0  0  0  0
    4.4904    0.6582    1.2094 C   0  0  0  0  0
    5.0630    1.3496    2.4111 H   0  0  0  0  0
    5.4454    0.9430    0.0883 N   0  0  0  0  0
    6.1375    0.0329   -0.6155 C   0  0  0  0  0
    6.9010    0.6737   -1.5995 N   0  0  0  0  0
    6.6943    1.9723   -1.5194 C   0  0  0  0  0
    7.1824    3.1454   -2.2447 C   0  0  0  0  0
    8.1503    3.0122   -3.3829 N   0  0  0  0  0
    6.7152    4.3825   -1.8381 N   0  0  0  0  0
    5.8084    4.4812   -0.7884 C   0  0  0  0  0
    5.3597    3.4468   -0.1271 N   0  0  0  0  0
    5.7422    2.1921   -0.4204 C   0  0  0  0  0
    4.3235   -0.8601    1.4286 C   0  0  0  0  0
    4.1957   -1.1812    2.8882 H   0  0  0  0  0
    5.5233   -1.6057    0.9241 O   0  0  0  0  0
    3.0578   -1.2782    0.6595 C   0  0  0  0  0
    2.0467   -1.8906    1.5829 H   0  0  0  0  0
    3.3824   -2.3132   -0.3765 O   0  0  0  0  0
    2.1309   -2.6995   -1.1076 P   0  0  0  0  0
    1.1459   -3.2710   -0.1313 O   0  0  0  0  0
    1.5136   -1.4944   -1.7531 O   0  0  0  0  0
    2.4555   -3.7345   -2.1437 O   0  0  0  0  0
  1  2  1  0  0  0
  2 65  1  0  0  0
  2 49  1  0  0  0
  2  3  1  0  0  0
  3  4  1  0  0  0
  4  5  1  0  0  0
  5  8  1  0  0  0
  5  7  1  0  0  0
  5  6  2  0  0  0
  8  9  1  0  0  0
  9 12  1  0  0  0
  9 11  1  0  0  0
  9 10  2  0  0  0
 12 13  1  0  0  0
 13 14  1  0  0  0
 14 17  1  0  0  0
 14 16  1  0  0  0
 14 15  1  0  0  0
 17 19  1  0  0  0
 17 18  1  0  0  0
 19 21  1  0  0  0
 19 20  2  0  0  0
 21 22  1  0  0  0
 22 23  1  0  0  0
 23 24  1  0  0  0
 24 26  1  0  0  0
 24 25  2  0  0  0
 26 27  1  0  0  0
 27 28  1  0  0  0
 28 29  1  0  0  0
 29 30  1  0  0  0
 30 32  1  0  0  0
 30 31  2  0  0  0
 32 33  1  0  0  0
 33 34  1  0  0  0
 34 35  1  0  0  0
 35 36  1  0  0  0
 36 37  1  0  0  0
 37 38  1  0  0  0
 38 39  1  0  0  0
 39 40  1  0  0  0
 40 41  1  0  0  0
 41 42  1  0  0  0
 42 43  1  0  0  0
 43 44  1  0  0  0
 44 45  1  0  0  0
 45 46  1  0  0  0
 46 47  1  0  0  0
 47 48  1  0  0  0
 49 50  1  0  0  0
 50 62  1  0  0  0
 50 52  1  0  0  0
 50 51  1  0  0  0
 52 61  1  0  0  0
 52 53  1  0  0  0
 53 54  2  0  0  0
 54 55  1  0  0  0
 55 61  2  0  0  0
 55 56  1  0  0  0
 56 58  2  0  0  0
 56 57  1  0  0  0
 58 59  1  0  0  0
 59 60  2  0  0  0
 60 61  1  0  0  0
 62 65  1  0  0  0
 62 64  1  0  0  0
 62 63  1  0  0  0
 65 67  1  0  0  0
 65 66  1  0  0  0
 67 68  1  0  0  0
 68 71  1  0  0  0
 68 70  1  0  0  0
 68 69  2  0  0  0
M  END
> <SMILES>
[H]C3(COP(=O)(O)OP(=O)(O)OCC(C)(C)C(O)C(=O)NCCC(=O)NCCSC(=O)CCCCCCCCCCCCCCCCC)(OC([H])(N2C=NC=1C(N)=NC=NC=12)C([H])(O)C3([H])(OP(=O)(O)O))

> <NAME>
STEAROYL-COA

> <BioCyc_link>
http://biocyc.org/HUMAN/NEW-IMAGE?object=STEAROYL-COA

> <BioCyc_name_HTML>
stearoyl-CoA

> <CAS>
362-66-3

> <KEGG_ID>
C00412

> <toxTree.tree.cramer.CramerTreeResult>


> <FORMULA>


> <toxTree.tree.cramer.CramerRules>


$$$$
ISOBUTYRYL-COA
 OpenBabel30120812303D

 57 59  0  0  0  0  0  0  0  0999 V2000
    1.0000    0.0000    0.0000 H   0  0  0  0  0
    2.5000    0.0000    0.0000 C   0  0  0  0  0
    2.9034    0.1217   -1.4396 C   0  0  0  0  0
    4.3999    0.1302   -1.5413 O   0  0  0  0  0
    4.8033    0.2519   -2.9809 P   0  0  0  0  0
    4.2639   -0.9208   -3.7449 O   0  0  0  0  0
    4.2352    1.5066   -3.5751 O   0  0  0  0  0
    6.2998    0.2605   -3.0825 O   0  0  0  0  0
    6.7032    0.3821   -4.5222 P   0  0  0  0  0
    6.1638   -0.7906   -5.2862 O   0  0  0  0  0
    6.1351    1.6368   -5.1164 O   0  0  0  0  0
    8.1997    0.3907   -4.6238 O   0  0  0  0  0
    8.6031    0.5124   -6.0634 C   0  0  0  0  0
   10.0996    0.5210   -6.1651 C   0  0  0  0  0
   10.6390    1.6937   -5.4011 C   0  0  0  0  0
   10.6677   -0.7337   -5.5708 C   0  0  0  0  0
   10.5030    0.6426   -7.6047 C   0  0  0  0  0
    9.9349    1.8973   -8.1989 O   0  0  0  0  0
   11.9995    0.6512   -7.7064 C   0  0  0  0  0
   12.8362    0.5464   -6.4658 O   0  0  0  0  0
   12.6594    0.7647   -9.0486 N   0  0  0  0  0
   14.1560    0.7733   -9.1503 C   0  0  0  0  0
   14.5594    0.8949  -10.5899 C   0  0  0  0  0
   16.0559    0.9035  -10.6915 C   0  0  0  0  0
   16.8925    0.7987   -9.4509 O   0  0  0  0  0
   16.7158    1.0169  -12.0338 N   0  0  0  0  0
   18.2123    1.0255  -12.1355 C   0  0  0  0  0
   18.6157    1.1472  -13.5751 C   0  0  0  0  0
   20.1122    1.1558  -13.6767 S   0  0  0  0  0
   20.5156    1.2774  -15.1163 C   0  0  0  0  0
   19.4661    1.3677  -16.1842 O   0  0  0  0  0
   21.9685    1.3088  -15.4881 C   0  0  0  0  0
   22.6542    0.0639  -15.0086 C   0  0  0  0  0
   22.1018    1.4346  -16.9768 C   0  0  0  0  0
    3.0599    1.1537    0.8679 O   0  0  0  0  0
    4.4904    0.6582    1.2094 C   0  0  0  0  0
    5.0630    1.3496    2.4111 H   0  0  0  0  0
    5.4454    0.9430    0.0883 N   0  0  0  0  0
    6.1375    0.0329   -0.6155 C   0  0  0  0  0
    6.9010    0.6737   -1.5995 N   0  0  0  0  0
    6.6943    1.9723   -1.5194 C   0  0  0  0  0
    7.1824    3.1454   -2.2447 C   0  0  0  0  0
    8.1503    3.0122   -3.3829 N   0  0  0  0  0
    6.7152    4.3825   -1.8381 N   0  0  0  0  0
    5.8084    4.4812   -0.7884 C   0  0  0  0  0
    5.3597    3.4468   -0.1271 N   0  0  0  0  0
    5.7422    2.1921   -0.4204 C   0  0  0  0  0
    4.3235   -0.8601    1.4286 C   0  0  0  0  0
    4.1957   -1.1812    2.8882 H   0  0  0  0  0
    5.5233   -1.6057    0.9241 O   0  0  0  0  0
    3.0578   -1.2782    0.6595 C   0  0  0  0  0
    2.0467   -1.8906    1.5829 H   0  0  0  0  0
    3.3824   -2.3132   -0.3765 O   0  0  0  0  0
    2.1309   -2.6995   -1.1076 P   0  0  0  0  0
    1.1459   -3.2710   -0.1313 O   0  0  0  0  0
    1.5136   -1.4944   -1.7531 O   0  0  0  0  0
    2.4555   -3.7345   -2.1437 O   0  0  0  0  0
  1  2  1  0  0  0
  2 51  1  0  0  0
  2 35  1  0  0  0
  2  3  1  0  0  0
  3  4  1  0  0  0
  4  5  1  0  0  0
  5  8  1  0  0  0
  5  7  1  0  0  0
  5  6  2  0  0  0
  8  9  1  0  0  0
  9 12  1  0  0  0
  9 11  1  0  0  0
  9 10  2  0  0  0
 12 13  1  0  0  0
 13 14  1  0  0  0
 14 17  1  0  0  0
 14 16  1  0  0  0
 14 15  1  0  0  0
 17 19  1  0  0  0
 17 18  1  0  0  0
 19 21  1  0  0  0
 19 20  2  0  0  0
 21 22  1  0  0  0
 22 23  1  0  0  0
 23 24  1  0  0  0
 24 26  1  0  0  0
 24 25  2  0  0  0
 26 27  1  0  0  0
 27 28  1  0  0  0
 28 29  1  0  0  0
 29 30  1  0  0  0
 30 32  1  0  0  0
 30 31  2  0  0  0
 32 34  1  0  0  0
 32 33  1  0  0  0
 35 36  1  0  0  0
 36 48  1  0  0  0
 36 38  1  0  0  0
 36 37  1  0  0  0
 38 47  1  0  0  0
 38 39  1  0  0  0
 39 40  2  0  0  0
 40 41  1  0  0  0
 41 47  2  0  0  0
 41 42  1  0  0  0
 42 44  2  0  0  0
 42 43  1  0  0  0
 44 45  1  0  0  0
 45 46  2  0  0  0
 46 47  1  0  0  0
 48 51  1  0  0  0
 48 50  1  0  0  0
 48 49  1  0  0  0
 51 53  1  0  0  0
 51 52  1  0  0  0
 53 54  1  0  0  0
 54 57  1  0  0  0
 54 56  1  0  0  0
 54 55  2  0  0  0
M  END
> <SMILES>
[H]C3(COP(=O)(O)OP(=O)(O)OCC(C)(C)C(O)C(=O)NCCC(=O)NCCSC(=O)C(C)C)(OC([H])(N2C=NC=1C(N)=NC=NC=12)C([H])(O)C3([H])(OP(=O)(O)O))

> <NAME>
ISOBUTYRYL-COA

> <BioCyc_link>
http://biocyc.org/HUMAN/NEW-IMAGE?object=ISOBUTYRYL-COA

> <BioCyc_name_HTML>
isobutyryl-CoA

> <CAS>
15621-60-0

> <KEGG_ID>
C00630

> <toxTree.tree.cramer.CramerTreeResult>


> <FORMULA>


> <toxTree.tree.cramer.CramerRules>


$$$$
2-PG
 OpenBabel30120812303D

 12 11  0  0  0  0  0  0  0  0999 V2000
    1.0000    0.0000    0.0000 H   0  0  0  0  0
    2.5000    0.0000    0.0000 C   0  0  0  0  0
    2.9931   -0.6977    1.2329 C   0  0  0  0  0
    2.4869    0.0185    2.4498 O   0  0  0  0  0
    3.0193   -0.7348   -1.2002 O   0  0  0  0  0
    2.5089   -2.1452   -1.1833 P   0  0  0  0  0
    2.9920   -2.8295    0.0610 O   0  0  0  0  0
    1.0090   -2.1546   -1.1775 O   0  0  0  0  0
    3.0282   -2.8800   -2.3834 O   0  0  0  0  0
    3.0007    1.4140    0.0000 C   0  0  0  0  0
    2.0265    2.5546    0.0000 O   0  0  0  0  0
    4.4756    1.6873    0.0000 O   0  0  0  0  0
  1  2  1  0  0  0
  2 10  1  0  0  0
  2  5  1  0  0  0
  2  3  1  0  0  0
  3  4  1  0  0  0
  5  6  1  0  0  0
  6  9  1  0  0  0
  6  8  1  0  0  0
  6  7  2  0  0  0
 10 12  1  0  0  0
 10 11  2  0  0  0
M  END
> <SMILES>
[H]C(CO)(OP(=O)(O)O)C(=O)O

> <NAME>
2-PG

> <BioCyc_link>
http://biocyc.org/HUMAN/NEW-IMAGE?object=2-PG

> <BioCyc_name_HTML>
2-phosphoglycerate

> <CAS>
2553-59-5

> <KEGG_ID>
C00631

> <toxTree.tree.cramer.CramerTreeResult>


> <FORMULA>


> <toxTree.tree.cramer.CramerRules>


$$$$
ALPHA-GLC-6-P
 OpenBabel30120812303D

 21 21  0  0  0  0  0  0  0  0999 V2000
    1.0000    0.0000    0.0000 H   0  0  0  0  0
    2.5000    0.0000    0.0000 C   0  0  0  0  0
    2.9688    0.1628    1.4155 O   0  0  0  0  0
    3.0315   -1.3200   -0.5633 O   0  0  0  0  0
    2.6379   -1.4463   -1.9315 C   0  0  0  0  0
    1.1440   -1.3129   -1.9536 H   0  0  0  0  0
    3.0711   -2.7838   -2.4545 C   0  0  0  0  0
    2.6585   -2.9175   -3.8904 O   0  0  0  0  0
    3.0918   -4.2549   -4.4134 P   0  0  0  0  0
    4.5849   -4.3618   -4.3174 O   0  0  0  0  0
    2.4842   -5.3546   -3.5940 O   0  0  0  0  0
    2.6792   -4.3886   -5.8493 O   0  0  0  0  0
    3.1450   -0.4160   -2.7815 C   0  0  0  0  0
    2.6818   -0.6625   -4.1867 H   0  0  0  0  0
    4.6449   -0.4238   -2.7694 O   0  0  0  0  0
    2.6181    0.9406   -2.3079 C   0  0  0  0  0
    1.1216    0.9571   -2.4091 H   0  0  0  0  0
    3.1588    2.0403   -3.1730 O   0  0  0  0  0
    3.0321    1.1590   -0.8492 C   0  0  0  0  0
    2.4525    2.4503   -0.3527 H   0  0  0  0  0
    4.5256    1.2439   -0.7383 O   0  0  0  0  0
  1  2  1  0  0  0
  2 19  1  0  0  0
  2  4  1  0  0  0
  2  3  1  0  0  0
  4  5  1  0  0  0
  5 13  1  0  0  0
  5  7  1  0  0  0
  5  6  1  0  0  0
  7  8  1  0  0  0
  8  9  1  0  0  0
  9 12  1  0  0  0
  9 11  1  0  0  0
  9 10  2  0  0  0
 13 16  1  0  0  0
 13 15  1  0  0  0
 13 14  1  0  0  0
 16 19  1  0  0  0
 16 18  1  0  0  0
 16 17  1  0  0  0
 19 21  1  0  0  0
 19 20  1  0  0  0
M  END
> <SMILES>
[H]C1(O)(OC([H])(COP(=O)(O)O)C([H])(O)C([H])(O)C1([H])(O))

> <NAME>
ALPHA-GLC-6-P

> <BioCyc_link>
http://biocyc.org/HUMAN/NEW-IMAGE?object=ALPHA-GLC-6-P

> <BioCyc_name_HTML>
&alpha;-D-glucose

> <CAS>
56-73-5

> <KEGG_ID>
C00668

> <toxTree.tree.cramer.CramerTreeResult>


> <FORMULA>


> <toxTree.tree.cramer.CramerRules>


$$$$
DEOXY-RIBOSE-1P
 OpenBabel30120812303D

 15 15  0  0  0  0  0  0  0  0999 V2000
    1.0000    0.0000    0.0000 H   0  0  0  0  0
    2.5000    0.0000    0.0000 C   0  0  0  0  0
    2.9034    0.1217   -1.4396 O   0  0  0  0  0
    3.0599    1.1537    0.8679 C   0  0  0  0  0
    4.4904    0.6582    1.2094 C   0  0  0  0  0
    4.3235   -0.8601    1.4286 O   0  0  0  0  0
    3.0578   -1.2782    0.6595 C   0  0  0  0  0
    2.0467   -1.8906    1.5829 H   0  0  0  0  0
    3.3824   -2.3132   -0.3765 C   0  0  0  0  0
    2.1309   -2.6995   -1.1076 O   0  0  0  0  0
    5.4454    0.9430    0.0883 O   0  0  0  0  0
    6.8129    0.4496    0.4579 P   0  0  0  0  0
    7.2767    1.1621    1.6937 O   0  0  0  0  0
    6.7738   -1.0220    0.7457 O   0  0  0  0  0
    7.7679    0.7344   -0.6632 O   0  0  0  0  0
  1  2  1  0  0  0
  2  7  1  0  0  0
  2  4  1  0  0  0
  2  3  1  0  0  0
  4  5  1  0  0  0
  5  6  1  0  0  0
  5 11  1  0  0  0
  6  7  1  0  0  0
  7  9  1  0  0  0
  7  8  1  0  0  0
  9 10  1  0  0  0
 11 12  1  0  0  0
 12 15  1  0  0  0
 12 14  1  0  0  0
 12 13  2  0  0  0
M  END
> <SMILES>
[H]C1(O)(CC(OC1([H])(CO))OP(=O)(O)O)

> <NAME>
DEOXY-RIBOSE-1P

> <BioCyc_link>
http://biocyc.org/HUMAN/NEW-IMAGE?object=DEOXY-RIBOSE-1P

> <BioCyc_name_HTML>
deoxyribose-1-phosphate

> <CAS>
17210-42-3

> <KEGG_ID>
C00672

> <toxTree.tree.cramer.CramerTreeResult>


> <FORMULA>


> <toxTree.tree.cramer.CramerRules>


$$$$
DEOXY-RIBOSE-5P
 OpenBabel30120812303D

 15 15  0  0  0  0  0  0  0  0999 V2000
    1.0000    0.0000    0.0000 H   0  0  0  0  0
    2.5000    0.0000    0.0000 C   0  0  0  0  0
    2.9034    0.1217   -1.4396 O   0  0  0  0  0
    3.0599    1.1537    0.8679 C   0  0  0  0  0
    4.4904    0.6582    1.2094 C   0  0  0  0  0
    5.4454    0.9430    0.0883 O   0  0  0  0  0
    4.3235   -0.8601    1.4286 O   0  0  0  0  0
    3.0578   -1.2782    0.6595 C   0  0  0  0  0
    2.0467   -1.8906    1.5829 H   0  0  0  0  0
    3.3824   -2.3132   -0.3765 C   0  0  0  0  0
    2.1309   -2.6995   -1.1076 O   0  0  0  0  0
    2.4555   -3.7345   -2.1437 P   0  0  0  0  0
    3.4404   -3.1630   -3.1200 O   0  0  0  0  0
    3.0728   -4.9396   -1.4982 O   0  0  0  0  0
    1.2040   -4.1208   -2.8748 O   0  0  0  0  0
  1  2  1  0  0  0
  2  8  1  0  0  0
  2  4  1  0  0  0
  2  3  1  0  0  0
  4  5  1  0  0  0
  5  7  1  0  0  0
  5  6  1  0  0  0
  7  8  1  0  0  0
  8 10  1  0  0  0
  8  9  1  0  0  0
 10 11  1  0  0  0
 11 12  1  0  0  0
 12 15  1  0  0  0
 12 14  1  0  0  0
 12 13  2  0  0  0
M  END
> <SMILES>
[H]C1(O)(CC(O)OC1([H])(COP(=O)(O)O))

> <NAME>
DEOXY-RIBOSE-5P

> <BioCyc_link>
http://biocyc.org/HUMAN/NEW-IMAGE?object=DEOXY-RIBOSE-5P

> <BioCyc_name_HTML>
deoxyribose-5-phosphate

> <CAS>
102916-66-5

> <KEGG_ID>
C00673

> <toxTree.tree.cramer.CramerTreeResult>


> <FORMULA>


> <toxTree.tree.cramer.CramerRules>


$$$$
D-METHYL-MALONYL-COA
 OpenBabel30120812303D

 60 62  0  0  0  0  0  0  0  0999 V2000
    1.0000    0.0000    0.0000 H   0  0  0  0  0
    2.5000    0.0000    0.0000 C   0  0  0  0  0
    2.9931   -0.6977    1.2329 C   0  0  0  0  0
    3.0193   -0.7348   -1.2002 C   0  0  0  0  0
    3.9071   -0.0318   -2.1838 O   0  0  0  0  0
    2.6508   -2.1726   -1.4167 O   0  0  0  0  0
    3.0007    1.4140    0.0000 C   0  0  0  0  0
    2.0265    2.5546    0.0000 O   0  0  0  0  0
    4.4756    1.6873    0.0000 S   0  0  0  0  0
    4.7102    3.1688    0.0000 C   0  0  0  0  0
    6.1851    3.4422    0.0000 C   0  0  0  0  0
    6.4198    4.9237    0.0000 N   0  0  0  0  0
    7.8201    5.4613    0.0000 C   0  0  0  0  0
    8.9859    4.5173    0.0000 O   0  0  0  0  0
    8.0548    6.9428    0.0000 C   0  0  0  0  0
    9.5297    7.2162    0.0000 C   0  0  0  0  0
    9.7643    8.6977    0.0000 N   0  0  0  0  0
   11.1647    9.2353    0.0000 C   0  0  0  0  0
   12.3304    8.2913    0.0000 O   0  0  0  0  0
   11.3994   10.7168    0.0000 C   0  0  0  0  0
   10.7548   11.3447    1.2002 O   0  0  0  0  0
   12.8742   10.9901    0.0000 C   0  0  0  0  0
   13.4862   10.3940    1.2329 C   0  0  0  0  0
   13.5188   10.3623   -1.2002 C   0  0  0  0  0
   13.1089   12.4717    0.0000 C   0  0  0  0  0
   14.5838   12.7450    0.0000 O   0  0  0  0  0
   14.8184   14.2266    0.0000 P   0  0  0  0  0
   14.2065   14.8227   -1.2329 O   0  0  0  0  0
   14.1739   14.8544    1.2002 O   0  0  0  0  0
   16.2933   14.4999    0.0000 O   0  0  0  0  0
   16.5280   15.9814    0.0000 P   0  0  0  0  0
   15.9160   16.5776   -1.2329 O   0  0  0  0  0
   15.8834   16.6093    1.2002 O   0  0  0  0  0
   18.0028   16.2548    0.0000 O   0  0  0  0  0
   18.2375   17.7363    0.0000 C   0  0  0  0  0
   19.7124   18.0097    0.0000 C   0  0  0  0  0
   20.1069   18.0945   -1.4447 H   0  0  0  0  0
   20.0736   19.3134    0.7534 O   0  0  0  0  0
   21.5584   19.0813    1.1408 C   0  0  0  0  0
   21.9989   19.9640    2.2707 H   0  0  0  0  0
   22.4743   19.4039   -0.0025 N   0  0  0  0  0
   23.1658   18.5220   -0.7418 C   0  0  0  0  0
   23.8780   19.1958   -1.7421 N   0  0  0  0  0
   23.6398   20.4872   -1.6372 C   0  0  0  0  0
   24.0715   21.6823   -2.3623 C   0  0  0  0  0
   25.0030   21.5900   -3.5343 N   0  0  0  0  0
   23.5857   22.9010   -1.9231 N   0  0  0  0  0
   22.7131   22.9617   -0.8420 C   0  0  0  0  0
   22.3149   21.9071   -0.1802 N   0  0  0  0  0
   22.7203   20.6671   -0.5036 C   0  0  0  0  0
   21.6256   17.5832    1.5044 C   0  0  0  0  0
   21.5274   17.3857    2.9881 H   0  0  0  0  0
   22.9339   16.9892    1.0737 O   0  0  0  0  0
   20.4517   16.9022    0.7789 C   0  0  0  0  0
   19.5341   16.2299    1.7567 H   0  0  0  0  0
   20.9482   15.8370   -0.1532 O   0  0  0  0  0
   19.7828   15.1931   -0.8439 P   0  0  0  0  0
   18.8839   14.5701    0.1827 O   0  0  0  0  0
   18.9958   16.2208   -1.6019 O   0  0  0  0  0
   20.2793   14.1279   -1.7760 O   0  0  0  0  0
  1  2  1  0  0  0
  2  7  1  0  0  0
  2  4  1  0  0  0
  2  3  1  0  0  0
  4  6  1  0  0  0
  4  5  2  0  0  0
  7  9  1  0  0  0
  7  8  2  0  0  0
  9 10  1  0  0  0
 10 11  1  0  0  0
 11 12  1  0  0  0
 12 13  1  0  0  0
 13 15  1  0  0  0
 13 14  2  0  0  0
 15 16  1  0  0  0
 16 17  1  0  0  0
 17 18  1  0  0  0
 18 20  1  0  0  0
 18 19  2  0  0  0
 20 22  1  0  0  0
 20 21  1  0  0  0
 22 25  1  0  0  0
 22 24  1  0  0  0
 22 23  1  0  0  0
 25 26  1  0  0  0
 26 27  1  0  0  0
 27 30  1  0  0  0
 27 29  1  0  0  0
 27 28  2  0  0  0
 30 31  1  0  0  0
 31 34  1  0  0  0
 31 33  1  0  0  0
 31 32  2  0  0  0
 34 35  1  0  0  0
 35 36  1  0  0  0
 36 54  1  0  0  0
 36 38  1  0  0  0
 36 37  1  0  0  0
 38 39  1  0  0  0
 39 51  1  0  0  0
 39 41  1  0  0  0
 39 40  1  0  0  0
 41 50  1  0  0  0
 41 42  1  0  0  0
 42 43  2  0  0  0
 43 44  1  0  0  0
 44 50  2  0  0  0
 44 45  1  0  0  0
 45 47  2  0  0  0
 45 46  1  0  0  0
 47 48  1  0  0  0
 48 49  2  0  0  0
 49 50  1  0  0  0
 51 54  1  0  0  0
 51 53  1  0  0  0
 51 52  1  0  0  0
 54 56  1  0  0  0
 54 55  1  0  0  0
 56 57  1  0  0  0
 57 60  1  0  0  0
 57 59  1  0  0  0
 57 58  2  0  0  0
M  END
> <SMILES>
[H]C(C)(C(=O)O)C(=O)SCCNC(=O)CCNC(=O)C(O)C(C)(C)COP(=O)(O)OP(=O)(O)OCC3([H])(OC([H])(N2C=NC=1C(N)=NC=NC=12)C([H])(O)C3([H])(OP(=O)(O)O))

> <NAME>
D-METHYL-MALONYL-COA

> <BioCyc_link>
http://biocyc.org/HUMAN/NEW-IMAGE?object=D-METHYL-MALONYL-COA

> <BioCyc_name_HTML>
(S)-methyl-malonyl-CoA

> <CAS>
104809-02-1

> <KEGG_ID>
C00683

> <toxTree.tree.cramer.CramerTreeResult>


> <FORMULA>


> <toxTree.tree.cramer.CramerRules>


$$$$
DTDP-DEOH-DEOXY-GLUCOSE
 OpenBabel30120812303D

 42 44  0  0  0  0  0  0  0  0999 V2000
    1.0000    0.0000    0.0000 H   0  0  0  0  0
    2.5000    0.0000    0.0000 C   0  0  0  0  0
    2.9688    0.1628    1.4155 C   0  0  0  0  0
    3.0315   -1.3200   -0.5633 O   0  0  0  0  0
    2.6379   -1.4463   -1.9315 C   0  0  0  0  0
    1.1440   -1.3129   -1.9536 H   0  0  0  0  0
    3.0711   -2.7838   -2.4545 O   0  0  0  0  0
    2.6585   -2.9175   -3.8904 P   0  0  0  0  0
    1.1654   -2.8106   -3.9864 O   0  0  0  0  0
    3.2661   -1.8178   -4.7099 O   0  0  0  0  0
    3.0918   -4.2549   -4.4134 O   0  0  0  0  0
    2.6792   -4.3886   -5.8493 P   0  0  0  0  0
    1.1861   -4.2818   -5.9453 O   0  0  0  0  0
    3.2867   -3.2889   -6.6688 O   0  0  0  0  0
    3.1125   -5.7261   -6.3724 O   0  0  0  0  0
    2.6998   -5.8598   -7.8083 C   0  0  0  0  0
    3.1331   -7.1972   -8.3313 C   0  0  0  0  0
    3.3235   -7.0019   -9.8063 H   0  0  0  0  0
    4.3834   -7.6235   -7.5234 O   0  0  0  0  0
    4.4440   -9.1539   -7.7740 C   0  0  0  0  0
    5.2592   -9.8707   -6.7389 H   0  0  0  0  0
    2.9660   -9.5976   -7.7693 C   0  0  0  0  0
    2.1329   -8.3532   -8.1235 C   0  0  0  0  0
    1.1591   -8.0300   -7.0293 H   0  0  0  0  0
    1.3267   -8.5889   -9.3663 O   0  0  0  0  0
    5.0993   -9.4633   -9.0874 N   0  0  0  0  0
    5.1455  -10.7680   -9.5316 C   0  0  0  0  0
    5.7202  -11.0615  -10.7698 C   0  0  0  0  0
    5.7796  -12.4792  -11.2562 C   0  0  0  0  0
    6.2392  -10.0291  -11.5528 C   0  0  0  0  0
    6.8586  -10.3342  -12.8845 O   0  0  0  0  0
    6.1812   -8.7280  -11.0995 N   0  0  0  0  0
    5.6102   -8.4437   -9.8711 C   0  0  0  0  0
    5.5450   -7.0252   -9.3876 O   0  0  0  0  0
    3.1450   -0.4160   -2.7815 C   0  0  0  0  0
    2.6818   -0.6625   -4.1867 H   0  0  0  0  0
    4.6449   -0.4238   -2.7694 O   0  0  0  0  0
    2.6181    0.9406   -2.3079 C   0  0  0  0  0
    1.1216    0.9571   -2.4091 H   0  0  0  0  0
    3.1588    2.0403   -3.1730 O   0  0  0  0  0
    3.0321    1.1590   -0.8492 C   0  0  0  0  0
    3.8299    2.3206   -0.3351 O   0  0  0  0  0
  1  2  1  0  0  0
  2 41  1  0  0  0
  2  4  1  0  0  0
  2  3  1  0  0  0
  4  5  1  0  0  0
  5 35  1  0  0  0
  5  7  1  0  0  0
  5  6  1  0  0  0
  7  8  1  0  0  0
  8 11  1  0  0  0
  8 10  1  0  0  0
  8  9  2  0  0  0
 11 12  1  0  0  0
 12 15  1  0  0  0
 12 14  1  0  0  0
 12 13  2  0  0  0
 15 16  1  0  0  0
 16 17  1  0  0  0
 17 23  1  0  0  0
 17 19  1  0  0  0
 17 18  1  0  0  0
 19 20  1  0  0  0
 20 22  1  0  0  0
 20 26  1  0  0  0
 20 21  1  0  0  0
 22 23  1  0  0  0
 23 25  1  0  0  0
 23 24  1  0  0  0
 26 33  1  0  0  0
 26 27  1  0  0  0
 27 28  2  0  0  0
 28 30  1  0  0  0
 28 29  1  0  0  0
 30 32  1  0  0  0
 30 31  2  0  0  0
 32 33  1  0  0  0
 33 34  2  0  0  0
 35 38  1  0  0  0
 35 37  1  0  0  0
 35 36  1  0  0  0
 38 41  1  0  0  0
 38 40  1  0  0  0
 38 39  1  0  0  0
 41 42  2  0  0  0
M  END
> <SMILES>
[H]C3(C)(OC([H])(OP(=O)(O)OP(=O)(O)OCC1([H])(OC([H])(CC1([H])(O))N2C=C(C)C(=O)NC2(=O)))C([H])(O)C([H])(O)C3(=O))

> <NAME>
DTDP-DEOH-DEOXY-GLUCOSE

> <BioCyc_link>
http://biocyc.org/HUMAN/NEW-IMAGE?object=DTDP-DEOH-DEOXY-GLUCOSE

> <BioCyc_name_HTML>
dTDP-4-dehydro-6-deoxy-D-glucose

> <CAS>


> <KEGG_ID>
C00687

> <toxTree.tree.cramer.CramerTreeResult>


> <FORMULA>


> <toxTree.tree.cramer.CramerRules>


$$$$
DTDP-D-GLUCOSE
 OpenBabel30120812303D

 43 45  0  0  0  0  0  0  0  0999 V2000
    1.0000    0.0000    0.0000 H   0  0  0  0  0
    2.5000    0.0000    0.0000 C   0  0  0  0  0
    2.9034    0.1217   -1.4396 O   0  0  0  0  0
    3.0599    1.1537    0.8679 C   0  0  0  0  0
    4.4904    0.6582    1.2094 C   0  0  0  0  0
    5.0630    1.3496    2.4111 H   0  0  0  0  0
    4.3235   -0.8601    1.4286 O   0  0  0  0  0
    3.0578   -1.2782    0.6595 C   0  0  0  0  0
    2.0467   -1.8906    1.5829 H   0  0  0  0  0
    3.3824   -2.3132   -0.3765 C   0  0  0  0  0
    2.1309   -2.6995   -1.1076 O   0  0  0  0  0
    2.4555   -3.7345   -2.1437 P   0  0  0  0  0
    3.4404   -3.1630   -3.1200 O   0  0  0  0  0
    3.0728   -4.9396   -1.4982 O   0  0  0  0  0
    1.2040   -4.1208   -2.8748 O   0  0  0  0  0
    1.5285   -5.1558   -3.9108 P   0  0  0  0  0
    2.5135   -4.5843   -4.8871 O   0  0  0  0  0
    2.1458   -6.3609   -3.2653 O   0  0  0  0  0
    0.2770   -5.5421   -4.6419 O   0  0  0  0  0
    0.6016   -6.5771   -5.6780 C   0  0  0  0  0
    1.7875   -7.3802   -5.1384 O   0  0  0  0  0
    1.3742   -8.1270   -3.9921 C   0  0  0  0  0
    0.8006   -7.1328   -3.0264 H   0  0  0  0  0
    2.5586   -8.8345   -3.4032 C   0  0  0  0  0
    2.1261   -9.6187   -2.1999 O   0  0  0  0  0
    0.3373   -9.0738   -4.2558 C   0  0  0  0  0
    0.0010   -9.8037   -2.9893 H   0  0  0  0  0
    0.7958  -10.0768   -5.2726 O   0  0  0  0  0
   -0.9073   -8.3393   -4.7597 C   0  0  0  0  0
   -1.3995   -7.4042   -3.6951 H   0  0  0  0  0
   -2.0015   -9.3183   -5.0664 O   0  0  0  0  0
   -0.5443   -7.5374   -6.0135 C   0  0  0  0  0
   -1.7385   -6.7517   -6.4681 H   0  0  0  0  0
   -0.1420   -8.4610   -7.1248 O   0  0  0  0  0
    5.4454    0.9430    0.0883 N   0  0  0  0  0
    6.0963   -0.0929   -0.5481 C   0  0  0  0  0
    6.9730    0.1781   -1.6005 C   0  0  0  0  0
    7.6892   -0.9435   -2.2928 C   0  0  0  0  0
    7.1798    1.4979   -2.0051 C   0  0  0  0  0
    8.1197    1.7993   -3.1346 O   0  0  0  0  0
    6.5181    2.5240   -1.3642 N   0  0  0  0  0
    5.6502    2.2487   -0.3216 C   0  0  0  0  0
    4.9291    3.3697    0.3665 O   0  0  0  0  0
  1  2  1  0  0  0
  2  8  1  0  0  0
  2  4  1  0  0  0
  2  3  1  0  0  0
  4  5  1  0  0  0
  5  7  1  0  0  0
  5 35  1  0  0  0
  5  6  1  0  0  0
  7  8  1  0  0  0
  8 10  1  0  0  0
  8  9  1  0  0  0
 10 11  1  0  0  0
 11 12  1  0  0  0
 12 15  1  0  0  0
 12 14  1  0  0  0
 12 13  2  0  0  0
 15 16  1  0  0  0
 16 19  1  0  0  0
 16 18  1  0  0  0
 16 17  2  0  0  0
 19 20  1  0  0  0
 20 32  1  0  0  0
 20 21  1  0  0  0
 21 22  1  0  0  0
 22 26  1  0  0  0
 22 24  1  0  0  0
 22 23  1  0  0  0
 24 25  1  0  0  0
 26 29  1  0  0  0
 26 28  1  0  0  0
 26 27  1  0  0  0
 29 32  1  0  0  0
 29 31  1  0  0  0
 29 30  1  0  0  0
 32 34  1  0  0  0
 32 33  1  0  0  0
 35 42  1  0  0  0
 35 36  1  0  0  0
 36 37  2  0  0  0
 37 39  1  0  0  0
 37 38  1  0  0  0
 39 41  1  0  0  0
 39 40  2  0  0  0
 41 42  1  0  0  0
 42 43  2  0  0  0
M  END
> <SMILES>
[H]C2(O)(CC([H])(OC2([H])(COP(=O)(O)OP(=O)(O)OC1OC([H])(CO)C([H])(O)C([H])(O)C1([H])(O)))N3C=C(C)C(=O)NC3(=O))

> <NAME>
DTDP-D-GLUCOSE

> <BioCyc_link>
http://biocyc.org/HUMAN/NEW-IMAGE?object=DTDP-D-GLUCOSE

> <BioCyc_name_HTML>
dTDP-D-glucose

> <CAS>
2009-24-7

> <KEGG_ID>
C00842

> <toxTree.tree.cramer.CramerTreeResult>


> <FORMULA>


> <toxTree.tree.cramer.CramerRules>


$$$$
DEPHOSPHO-COA
 OpenBabel30120812303D

 48 50  0  0  0  0  0  0  0  0999 V2000
    1.0000    0.0000    0.0000 H   0  0  0  0  0
    2.5000    0.0000    0.0000 C   0  0  0  0  0
    2.9034    0.1217   -1.4396 C   0  0  0  0  0
    4.3999    0.1302   -1.5413 O   0  0  0  0  0
    4.8033    0.2519   -2.9809 P   0  0  0  0  0
    4.2639   -0.9208   -3.7449 O   0  0  0  0  0
    4.2352    1.5066   -3.5751 O   0  0  0  0  0
    6.2998    0.2605   -3.0825 O   0  0  0  0  0
    6.7032    0.3821   -4.5222 P   0  0  0  0  0
    6.1638   -0.7906   -5.2862 O   0  0  0  0  0
    6.1351    1.6368   -5.1164 O   0  0  0  0  0
    8.1997    0.3907   -4.6238 O   0  0  0  0  0
    8.6031    0.5124   -6.0634 C   0  0  0  0  0
   10.0996    0.5210   -6.1651 C   0  0  0  0  0
   10.6390    1.6937   -5.4011 C   0  0  0  0  0
   10.6677   -0.7337   -5.5708 C   0  0  0  0  0
   10.5030    0.6426   -7.6047 C   0  0  0  0  0
    9.9349    1.8973   -8.1989 O   0  0  0  0  0
   11.9995    0.6512   -7.7064 C   0  0  0  0  0
   12.8362    0.5464   -6.4658 O   0  0  0  0  0
   12.6594    0.7647   -9.0486 N   0  0  0  0  0
   14.1560    0.7733   -9.1503 C   0  0  0  0  0
   14.5594    0.8949  -10.5899 C   0  0  0  0  0
   16.0559    0.9035  -10.6915 C   0  0  0  0  0
   16.8925    0.7987   -9.4509 O   0  0  0  0  0
   16.7158    1.0169  -12.0338 N   0  0  0  0  0
   18.2123    1.0255  -12.1355 C   0  0  0  0  0
   18.6157    1.1472  -13.5751 C   0  0  0  0  0
   20.1122    1.1558  -13.6767 S   0  0  0  0  0
    3.0599    1.1537    0.8679 O   0  0  0  0  0
    4.4904    0.6582    1.2094 C   0  0  0  0  0
    5.0630    1.3496    2.4111 H   0  0  0  0  0
    5.4454    0.9430    0.0883 N   0  0  0  0  0
    6.1375    0.0329   -0.6155 C   0  0  0  0  0
    6.9010    0.6737   -1.5995 N   0  0  0  0  0
    6.6943    1.9723   -1.5194 C   0  0  0  0  0
    7.1824    3.1454   -2.2447 C   0  0  0  0  0
    8.1503    3.0122   -3.3829 N   0  0  0  0  0
    6.7152    4.3825   -1.8381 N   0  0  0  0  0
    5.8084    4.4812   -0.7884 C   0  0  0  0  0
    5.3597    3.4468   -0.1271 N   0  0  0  0  0
    5.7422    2.1921   -0.4204 C   0  0  0  0  0
    4.3235   -0.8601    1.4286 C   0  0  0  0  0
    4.1957   -1.1812    2.8882 H   0  0  0  0  0
    5.5233   -1.6057    0.9241 O   0  0  0  0  0
    3.0578   -1.2782    0.6595 C   0  0  0  0  0
    2.0467   -1.8906    1.5829 H   0  0  0  0  0
    3.3824   -2.3132   -0.3765 O   0  0  0  0  0
  1  2  1  0  0  0
  2 46  1  0  0  0
  2 30  1  0  0  0
  2  3  1  0  0  0
  3  4  1  0  0  0
  4  5  1  0  0  0
  5  8  1  0  0  0
  5  7  1  0  0  0
  5  6  2  0  0  0
  8  9  1  0  0  0
  9 12  1  0  0  0
  9 11  1  0  0  0
  9 10  2  0  0  0
 12 13  1  0  0  0
 13 14  1  0  0  0
 14 17  1  0  0  0
 14 16  1  0  0  0
 14 15  1  0  0  0
 17 19  1  0  0  0
 17 18  1  0  0  0
 19 21  1  0  0  0
 19 20  2  0  0  0
 21 22  1  0  0  0
 22 23  1  0  0  0
 23 24  1  0  0  0
 24 26  1  0  0  0
 24 25  2  0  0  0
 26 27  1  0  0  0
 27 28  1  0  0  0
 28 29  1  0  0  0
 30 31  1  0  0  0
 31 43  1  0  0  0
 31 33  1  0  0  0
 31 32  1  0  0  0
 33 42  1  0  0  0
 33 34  1  0  0  0
 34 35  2  0  0  0
 35 36  1  0  0  0
 36 42  2  0  0  0
 36 37  1  0  0  0
 37 39  2  0  0  0
 37 38  1  0  0  0
 39 40  1  0  0  0
 40 41  2  0  0  0
 41 42  1  0  0  0
 43 46  1  0  0  0
 43 45  1  0  0  0
 43 44  1  0  0  0
 46 48  1  0  0  0
 46 47  1  0  0  0
M  END
> <SMILES>
[H]C3(COP(=O)(O)OP(=O)(O)OCC(C)(C)C(O)C(=O)NCCC(=O)NCCS)(OC([H])(N2C=NC=1C(N)=NC=NC=12)C([H])(O)C3([H])(O))

> <NAME>
DEPHOSPHO-COA

> <BioCyc_link>
http://biocyc.org/HUMAN/NEW-IMAGE?object=DEPHOSPHO-COA

> <BioCyc_name_HTML>
dephospho-CoA

> <CAS>
3633-59-8

> <KEGG_ID>
C00882

> <toxTree.tree.cramer.CramerTreeResult>


> <FORMULA>


> <toxTree.tree.cramer.CramerRules>


$$$$
CPD-499
 OpenBabel30120812303D

 14 13  0  0  0  0  0  0  0  0999 V2000
    1.0000    0.0000    0.0000 C   0  0  0  0  0
    2.5000    0.0000    0.0000 C   0  0  0  0  0
    2.9931   -0.6977    1.2329 O   0  0  0  0  0
    3.0193   -0.7348   -1.2002 C   0  0  0  0  0
    2.5089   -2.1452   -1.1833 C   0  0  0  0  0
    3.0282   -2.8800   -2.3834 O   0  0  0  0  0
    2.5178   -4.2904   -2.3666 P   0  0  0  0  0
    3.0009   -4.9748   -1.1223 O   0  0  0  0  0
    1.0179   -4.2998   -2.3608 O   0  0  0  0  0
    3.0371   -5.0252   -3.5667 O   0  0  0  0  0
    3.0007    1.4140    0.0000 C   0  0  0  0  0
    4.5007    1.4140    0.0000 C   0  0  0  0  0
    5.2507    0.1149    0.0000 O   0  0  0  0  0
    5.2507    2.7130    0.0000 O   0  0  0  0  0
  1  2  1  0  0  0
  2 11  1  0  0  0
  2  4  1  0  0  0
  2  3  1  0  0  0
  4  5  1  0  0  0
  5  6  1  0  0  0
  6  7  1  0  0  0
  7 10  1  0  0  0
  7  9  1  0  0  0
  7  8  2  0  0  0
 11 12  1  0  0  0
 12 14  1  0  0  0
 12 13  2  0  0  0
M  END
> <SMILES>
CC(O)(CCOP(=O)(O)O)CC(=O)O

> <NAME>
CPD-499

> <BioCyc_link>
http://biocyc.org/HUMAN/NEW-IMAGE?object=CPD-499

> <BioCyc_name_HTML>
mevalonate-5P

> <CAS>
73566-35-5

> <KEGG_ID>
C01107

> <toxTree.tree.cramer.CramerTreeResult>


> <FORMULA>


> <toxTree.tree.cramer.CramerRules>


$$$$
CPD-641
 OpenBabel30120812303D

 18 17  0  0  0  0  0  0  0  0999 V2000
    1.0000    0.0000    0.0000 C   0  0  0  0  0
    2.5000    0.0000    0.0000 C   0  0  0  0  0
    2.9931   -0.6977    1.2329 O   0  0  0  0  0
    3.0193   -0.7348   -1.2002 C   0  0  0  0  0
    2.5089   -2.1452   -1.1833 C   0  0  0  0  0
    3.0282   -2.8800   -2.3834 O   0  0  0  0  0
    2.5178   -4.2904   -2.3666 P   0  0  0  0  0
    3.0009   -4.9748   -1.1223 O   0  0  0  0  0
    1.0179   -4.2998   -2.3608 O   0  0  0  0  0
    3.0371   -5.0252   -3.5667 O   0  0  0  0  0
    2.5267   -6.4356   -3.5499 P   0  0  0  0  0
    3.0098   -7.1200   -2.3055 O   0  0  0  0  0
    1.0268   -6.4450   -3.5441 O   0  0  0  0  0
    3.0460   -7.1704   -4.7500 O   0  0  0  0  0
    3.0007    1.4140    0.0000 C   0  0  0  0  0
    4.5007    1.4140    0.0000 C   0  0  0  0  0
    5.2507    0.1149    0.0000 O   0  0  0  0  0
    5.2507    2.7130    0.0000 O   0  0  0  0  0
  1  2  1  0  0  0
  2 15  1  0  0  0
  2  4  1  0  0  0
  2  3  1  0  0  0
  4  5  1  0  0  0
  5  6  1  0  0  0
  6  7  1  0  0  0
  7 10  1  0  0  0
  7  9  1  0  0  0
  7  8  2  0  0  0
 10 11  1  0  0  0
 11 14  1  0  0  0
 11 13  1  0  0  0
 11 12  2  0  0  0
 15 16  1  0  0  0
 16 18  1  0  0  0
 16 17  2  0  0  0
M  END
> <SMILES>
CC(O)(CCOP(=O)(O)OP(=O)(O)O)CC(=O)O

> <NAME>
CPD-641

> <BioCyc_link>
http://biocyc.org/HUMAN/NEW-IMAGE?object=CPD-641

> <BioCyc_name_HTML>
mevalonate-5-PP

> <CAS>
4872-34-8

> <KEGG_ID>
C01143

> <toxTree.tree.cramer.CramerTreeResult>


> <FORMULA>


> <toxTree.tree.cramer.CramerRules>


$$$$
GLC-6-P
 OpenBabel30120812303D

 21 21  0  0  0  0  0  0  0  0999 V2000
    1.0000    0.0000    0.0000 H   0  0  0  0  0
    2.5000    0.0000    0.0000 C   0  0  0  0  0
    2.9688    0.1628    1.4155 O   0  0  0  0  0
    3.0315   -1.3200   -0.5633 O   0  0  0  0  0
    2.6379   -1.4463   -1.9315 C   0  0  0  0  0
    1.1440   -1.3129   -1.9536 H   0  0  0  0  0
    3.0711   -2.7838   -2.4545 C   0  0  0  0  0
    2.6585   -2.9175   -3.8904 O   0  0  0  0  0
    3.0918   -4.2549   -4.4134 P   0  0  0  0  0
    4.5849   -4.3618   -4.3174 O   0  0  0  0  0
    2.4842   -5.3546   -3.5940 O   0  0  0  0  0
    2.6792   -4.3886   -5.8493 O   0  0  0  0  0
    3.1450   -0.4160   -2.7815 C   0  0  0  0  0
    2.6818   -0.6625   -4.1867 H   0  0  0  0  0
    4.6449   -0.4238   -2.7694 O   0  0  0  0  0
    2.6181    0.9406   -2.3079 C   0  0  0  0  0
    1.1216    0.9571   -2.4091 H   0  0  0  0  0
    3.1588    2.0403   -3.1730 O   0  0  0  0  0
    3.0321    1.1590   -0.8492 C   0  0  0  0  0
    2.4525    2.4503   -0.3527 H   0  0  0  0  0
    4.5256    1.2439   -0.7383 O   0  0  0  0  0
  1  2  1  0  0  0
  2 19  1  0  0  0
  2  4  1  0  0  0
  2  3  1  0  0  0
  4  5  1  0  0  0
  5 13  1  0  0  0
  5  7  1  0  0  0
  5  6  1  0  0  0
  7  8  1  0  0  0
  8  9  1  0  0  0
  9 12  1  0  0  0
  9 11  1  0  0  0
  9 10  2  0  0  0
 13 16  1  0  0  0
 13 15  1  0  0  0
 13 14  1  0  0  0
 16 19  1  0  0  0
 16 18  1  0  0  0
 16 17  1  0  0  0
 19 21  1  0  0  0
 19 20  1  0  0  0
M  END
> <SMILES>
[H]C1(O)(OC([H])(COP(=O)(O)O)C([H])(O)C([H])(O)C1([H])(O))

> <NAME>
GLC-6-P

> <BioCyc_link>
http://biocyc.org/HUMAN/NEW-IMAGE?object=GLC-6-P

> <BioCyc_name_HTML>
&beta;-D-glucose-6-phosphate

> <CAS>


> <KEGG_ID>
C01172

> <toxTree.tree.cramer.CramerTreeResult>


> <FORMULA>


> <toxTree.tree.cramer.CramerRules>


$$$$
METHYL-MALONYL-COA
 OpenBabel30120812303D

 60 62  0  0  0  0  0  0  0  0999 V2000
    1.0000    0.0000    0.0000 H   0  0  0  0  0
    2.5000    0.0000    0.0000 C   0  0  0  0  0
    2.9931   -0.6977    1.2329 C   0  0  0  0  0
    3.0193   -0.7348   -1.2002 C   0  0  0  0  0
    3.9071   -0.0318   -2.1838 O   0  0  0  0  0
    2.6508   -2.1726   -1.4167 O   0  0  0  0  0
    3.0007    1.4140    0.0000 C   0  0  0  0  0
    2.0265    2.5546    0.0000 O   0  0  0  0  0
    4.4756    1.6873    0.0000 S   0  0  0  0  0
    4.7102    3.1688    0.0000 C   0  0  0  0  0
    6.1851    3.4422    0.0000 C   0  0  0  0  0
    6.4198    4.9237    0.0000 N   0  0  0  0  0
    7.8201    5.4613    0.0000 C   0  0  0  0  0
    8.9859    4.5173    0.0000 O   0  0  0  0  0
    8.0548    6.9428    0.0000 C   0  0  0  0  0
    9.5297    7.2162    0.0000 C   0  0  0  0  0
    9.7643    8.6977    0.0000 N   0  0  0  0  0
   11.1647    9.2353    0.0000 C   0  0  0  0  0
   12.3304    8.2913    0.0000 O   0  0  0  0  0
   11.3994   10.7168    0.0000 C   0  0  0  0  0
   10.7548   11.3447    1.2002 O   0  0  0  0  0
   12.8742   10.9901    0.0000 C   0  0  0  0  0
   13.4862   10.3940    1.2329 C   0  0  0  0  0
   13.5188   10.3623   -1.2002 C   0  0  0  0  0
   13.1089   12.4717    0.0000 C   0  0  0  0  0
   14.5838   12.7450    0.0000 O   0  0  0  0  0
   14.8184   14.2266    0.0000 P   0  0  0  0  0
   14.2065   14.8227   -1.2329 O   0  0  0  0  0
   14.1739   14.8544    1.2002 O   0  0  0  0  0
   16.2933   14.4999    0.0000 O   0  0  0  0  0
   16.5280   15.9814    0.0000 P   0  0  0  0  0
   15.9160   16.5776   -1.2329 O   0  0  0  0  0
   15.8834   16.6093    1.2002 O   0  0  0  0  0
   18.0028   16.2548    0.0000 O   0  0  0  0  0
   18.2375   17.7363    0.0000 C   0  0  0  0  0
   19.7124   18.0097    0.0000 C   0  0  0  0  0
   20.1069   18.0945   -1.4447 H   0  0  0  0  0
   20.0736   19.3134    0.7534 O   0  0  0  0  0
   21.5584   19.0813    1.1408 C   0  0  0  0  0
   21.9989   19.9640    2.2707 H   0  0  0  0  0
   22.4743   19.4039   -0.0025 N   0  0  0  0  0
   23.1658   18.5220   -0.7418 C   0  0  0  0  0
   23.8780   19.1958   -1.7421 N   0  0  0  0  0
   23.6398   20.4872   -1.6372 C   0  0  0  0  0
   24.0715   21.6823   -2.3623 C   0  0  0  0  0
   25.0030   21.5900   -3.5343 N   0  0  0  0  0
   23.5857   22.9010   -1.9231 N   0  0  0  0  0
   22.7131   22.9617   -0.8420 C   0  0  0  0  0
   22.3149   21.9071   -0.1802 N   0  0  0  0  0
   22.7203   20.6671   -0.5036 C   0  0  0  0  0
   21.6256   17.5832    1.5044 C   0  0  0  0  0
   21.5274   17.3857    2.9881 H   0  0  0  0  0
   22.9339   16.9892    1.0737 O   0  0  0  0  0
   20.4517   16.9022    0.7789 C   0  0  0  0  0
   19.5341   16.2299    1.7567 H   0  0  0  0  0
   20.9482   15.8370   -0.1532 O   0  0  0  0  0
   19.7828   15.1931   -0.8439 P   0  0  0  0  0
   18.8839   14.5701    0.1827 O   0  0  0  0  0
   18.9958   16.2208   -1.6019 O   0  0  0  0  0
   20.2793   14.1279   -1.7760 O   0  0  0  0  0
  1  2  1  0  0  0
  2  7  1  0  0  0
  2  4  1  0  0  0
  2  3  1  0  0  0
  4  6  1  0  0  0
  4  5  2  0  0  0
  7  9  1  0  0  0
  7  8  2  0  0  0
  9 10  1  0  0  0
 10 11  1  0  0  0
 11 12  1  0  0  0
 12 13  1  0  0  0
 13 15  1  0  0  0
 13 14  2  0  0  0
 15 16  1  0  0  0
 16 17  1  0  0  0
 17 18  1  0  0  0
 18 20  1  0  0  0
 18 19  2  0  0  0
 20 22  1  0  0  0
 20 21  1  0  0  0
 22 25  1  0  0  0
 22 24  1  0  0  0
 22 23  1  0  0  0
 25 26  1  0  0  0
 26 27  1  0  0  0
 27 30  1  0  0  0
 27 29  1  0  0  0
 27 28  2  0  0  0
 30 31  1  0  0  0
 31 34  1  0  0  0
 31 33  1  0  0  0
 31 32  2  0  0  0
 34 35  1  0  0  0
 35 36  1  0  0  0
 36 54  1  0  0  0
 36 38  1  0  0  0
 36 37  1  0  0  0
 38 39  1  0  0  0
 39 51  1  0  0  0
 39 41  1  0  0  0
 39 40  1  0  0  0
 41 50  1  0  0  0
 41 42  1  0  0  0
 42 43  2  0  0  0
 43 44  1  0  0  0
 44 50  2  0  0  0
 44 45  1  0  0  0
 45 47  2  0  0  0
 45 46  1  0  0  0
 47 48  1  0  0  0
 48 49  2  0  0  0
 49 50  1  0  0  0
 51 54  1  0  0  0
 51 53  1  0  0  0
 51 52  1  0  0  0
 54 56  1  0  0  0
 54 55  1  0  0  0
 56 57  1  0  0  0
 57 60  1  0  0  0
 57 59  1  0  0  0
 57 58  2  0  0  0
M  END
> <SMILES>
[H]C(C)(C(=O)O)C(=O)SCCNC(=O)CCNC(=O)C(O)C(C)(C)COP(=O)(O)OP(=O)(O)OCC3([H])(OC([H])(N2C=NC=1C(N)=NC=NC=12)C([H])(O)C3([H])(OP(=O)(O)O))

> <NAME>
METHYL-MALONYL-COA

> <BioCyc_link>
http://biocyc.org/HUMAN/NEW-IMAGE?object=METHYL-MALONYL-COA

> <BioCyc_name_HTML>
(R)-methylmalonyl-CoA

> <CAS>


> <KEGG_ID>
C01213

> <toxTree.tree.cramer.CramerTreeResult>


> <FORMULA>


> <toxTree.tree.cramer.CramerRules>


$$$$
GDP-4-DEHYDRO-6-DEOXY-D-MANNOSE
 OpenBabel30120812303D

 46 49  0  0  0  0  0  0  0  0999 V2000
    1.0000    0.0000    0.0000 H   0  0  0  0  0
    2.5000    0.0000    0.0000 C   0  0  0  0  0
    2.9688    0.1628    1.4155 C   0  0  0  0  0
    3.0315   -1.3200   -0.5633 O   0  0  0  0  0
    2.6379   -1.4463   -1.9315 C   0  0  0  0  0
    1.1440   -1.3129   -1.9536 H   0  0  0  0  0
    3.0711   -2.7838   -2.4545 O   0  0  0  0  0
    2.6585   -2.9175   -3.8904 P   0  0  0  0  0
    1.1654   -2.8106   -3.9864 O   0  0  0  0  0
    3.2661   -1.8178   -4.7099 O   0  0  0  0  0
    3.0918   -4.2549   -4.4134 O   0  0  0  0  0
    2.6792   -4.3886   -5.8493 P   0  0  0  0  0
    1.1861   -4.2818   -5.9453 O   0  0  0  0  0
    3.2867   -3.2889   -6.6688 O   0  0  0  0  0
    3.1125   -5.7261   -6.3724 O   0  0  0  0  0
    2.6998   -5.8598   -7.8083 C   0  0  0  0  0
    3.1331   -7.1972   -8.3313 C   0  0  0  0  0
    3.3235   -7.0019   -9.8063 H   0  0  0  0  0
    4.3834   -7.6235   -7.5234 O   0  0  0  0  0
    4.4440   -9.1539   -7.7740 C   0  0  0  0  0
    5.2592   -9.8707   -6.7389 H   0  0  0  0  0
    5.0993   -9.4633   -9.0874 N   0  0  0  0  0
    5.2109  -10.6839   -9.6353 C   0  0  0  0  0
    5.8283  -10.5872  -10.8888 N   0  0  0  0  0
    6.1033   -9.3219  -11.1309 C   0  0  0  0  0
    6.7274   -8.5902  -12.2334 C   0  0  0  0  0
    7.2230   -9.2991  -13.4589 O   0  0  0  0  0
    6.8419   -7.2179  -12.0998 N   0  0  0  0  0
    6.3641   -6.5801  -10.9602 C   0  0  0  0  0
    6.4987   -5.0889  -10.8695 N   0  0  0  0  0
    5.8036   -7.2142   -9.9639 N   0  0  0  0  0
    5.6397   -8.5482   -9.9693 C   0  0  0  0  0
    2.9660   -9.5976   -7.7693 C   0  0  0  0  0
    2.5733  -10.1429   -6.4283 H   0  0  0  0  0
    2.7362  -10.6936   -8.7672 O   0  0  0  0  0
    2.1329   -8.3532   -8.1235 C   0  0  0  0  0
    1.1591   -8.0300   -7.0293 H   0  0  0  0  0
    1.3267   -8.5889   -9.3663 O   0  0  0  0  0
    3.1450   -0.4160   -2.7815 C   0  0  0  0  0
    2.6818   -0.6625   -4.1867 H   0  0  0  0  0
    4.6449   -0.4238   -2.7694 O   0  0  0  0  0
    2.6181    0.9406   -2.3079 C   0  0  0  0  0
    1.1216    0.9571   -2.4091 H   0  0  0  0  0
    3.1588    2.0403   -3.1730 O   0  0  0  0  0
    3.0321    1.1590   -0.8492 C   0  0  0  0  0
    3.8299    2.3206   -0.3351 O   0  0  0  0  0
  1  2  1  0  0  0
  2 45  1  0  0  0
  2  4  1  0  0  0
  2  3  1  0  0  0
  4  5  1  0  0  0
  5 39  1  0  0  0
  5  7  1  0  0  0
  5  6  1  0  0  0
  7  8  1  0  0  0
  8 11  1  0  0  0
  8 10  1  0  0  0
  8  9  2  0  0  0
 11 12  1  0  0  0
 12 15  1  0  0  0
 12 14  1  0  0  0
 12 13  2  0  0  0
 15 16  1  0  0  0
 16 17  1  0  0  0
 17 36  1  0  0  0
 17 19  1  0  0  0
 17 18  1  0  0  0
 19 20  1  0  0  0
 20 33  1  0  0  0
 20 22  1  0  0  0
 20 21  1  0  0  0
 22 32  1  0  0  0
 22 23  1  0  0  0
 23 24  2  0  0  0
 24 25  1  0  0  0
 25 32  2  0  0  0
 25 26  1  0  0  0
 26 28  1  0  0  0
 26 27  2  0  0  0
 28 29  1  0  0  0
 29 31  2  0  0  0
 29 30  1  0  0  0
 31 32  1  0  0  0
 33 36  1  0  0  0
 33 35  1  0  0  0
 33 34  1  0  0  0
 36 38  1  0  0  0
 36 37  1  0  0  0
 39 42  1  0  0  0
 39 41  1  0  0  0
 39 40  1  0  0  0
 42 45  1  0  0  0
 42 44  1  0  0  0
 42 43  1  0  0  0
 45 46  2  0  0  0
M  END
> <SMILES>
[H]C4(C)(OC([H])(OP(=O)(O)OP(=O)(O)OCC3([H])(OC([H])(N2C=NC=1C(=O)NC(N)=NC=12)C([H])(O)C3([H])(O)))C([H])(O)C([H])(O)C4(=O))

> <NAME>
GDP-4-DEHYDRO-6-DEOXY-D-MANNOSE

> <BioCyc_link>
http://biocyc.org/HUMAN/NEW-IMAGE?object=GDP-4-DEHYDRO-6-DEOXY-D-MANNOSE

> <BioCyc_name_HTML>
GDP-4-dehydro-6-deoxy-D-mannose

> <CAS>


> <KEGG_ID>
C01222

> <toxTree.tree.cramer.CramerTreeResult>


> <FORMULA>


> <toxTree.tree.cramer.CramerRules>


$$$$
D-6-P-GLUCONO-DELTA-LACTONE
 OpenBabel30120812303D

 20 20  0  0  0  0  0  0  0  0999 V2000
    1.0000    0.0000    0.0000 H   0  0  0  0  0
    2.5000    0.0000    0.0000 C   0  0  0  0  0
    2.9688    0.1628    1.4155 O   0  0  0  0  0
    3.0315   -1.3200   -0.5633 C   0  0  0  0  0
    3.8401   -2.3254    0.2018 O   0  0  0  0  0
    2.6379   -1.4463   -1.9315 O   0  0  0  0  0
    3.1450   -0.4160   -2.7815 C   0  0  0  0  0
    2.6818   -0.6625   -4.1867 H   0  0  0  0  0
    4.6449   -0.4238   -2.7694 C   0  0  0  0  0
    5.1585    0.6633   -3.6664 O   0  0  0  0  0
    6.6584    0.6555   -3.6543 P   0  0  0  0  0
    7.1416    0.9009   -2.2556 O   0  0  0  0  0
    7.1745   -0.6783   -4.1068 O   0  0  0  0  0
    7.1720    1.7425   -4.5512 O   0  0  0  0  0
    2.6181    0.9406   -2.3079 C   0  0  0  0  0
    1.1216    0.9571   -2.4091 H   0  0  0  0  0
    3.1588    2.0403   -3.1730 O   0  0  0  0  0
    3.0321    1.1590   -0.8492 C   0  0  0  0  0
    2.4525    2.4503   -0.3527 H   0  0  0  0  0
    4.5256    1.2439   -0.7383 O   0  0  0  0  0
  1  2  1  0  0  0
  2 18  1  0  0  0
  2  4  1  0  0  0
  2  3  1  0  0  0
  4  6  1  0  0  0
  4  5  2  0  0  0
  6  7  1  0  0  0
  7 15  1  0  0  0
  7  9  1  0  0  0
  7  8  1  0  0  0
  9 10  1  0  0  0
 10 11  1  0  0  0
 11 14  1  0  0  0
 11 13  1  0  0  0
 11 12  2  0  0  0
 15 18  1  0  0  0
 15 17  1  0  0  0
 15 16  1  0  0  0
 18 20  1  0  0  0
 18 19  1  0  0  0
M  END
> <SMILES>
[H]C1(O)(C(=O)OC([H])(COP(=O)(O)O)C([H])(O)C1([H])(O))

> <NAME>
D-6-P-GLUCONO-DELTA-LACTONE

> <BioCyc_link>
http://biocyc.org/HUMAN/NEW-IMAGE?object=D-6-P-GLUCONO-DELTA-LACTONE

> <BioCyc_name_HTML>
D-glucono-&delta;-lactone-6-phosphate

> <CAS>
2641-81-8

> <KEGG_ID>
C01236

> <toxTree.tree.cramer.CramerTreeResult>


> <FORMULA>


> <toxTree.tree.cramer.CramerRules>


$$$$
CPD-202
 OpenBabel30120812303D

 85 91  0  0  0  0  0  0  0  0999 V2000
    1.0000    0.0000    0.0000 H   0  0  0  0  0
    2.5000    0.0000    0.0000 C   0  0  0  0  0
    3.1238    0.3133    1.3277 O   0  0  0  0  0
    2.9807   -1.3990   -0.2815 C   0  0  0  0  0
    1.9559   -2.1293   -1.1104 C   0  0  0  0  0
    2.1637   -2.2575   -2.4536 C   0  0  0  0  0
    3.0905   -2.8404   -3.4789 C   0  0  0  0  0
    2.4449    2.3691   -0.4391 C   0  0  0  0  0
    2.9356    1.0199   -0.7950 C   0  0  0  0  0
    2.2317    3.1759   -1.7268 C   0  0  0  0  0
    1.1543    2.5176   -2.5104 C   0  0  0  0  0
    0.8546    1.2239   -1.8128 H   0  0  0  0  0
   -0.0536    3.4063   -2.5444 O   0  0  0  0  0
    1.5176    2.1905   -3.7921 C   0  0  0  0  0
    0.5183    1.4667   -4.6582 C   0  0  0  0  0
   -0.6046    1.8900   -5.5581 H   0  0  0  0  0
    1.6534    1.2189   -3.0276 C   0  0  0  0  0
    1.5216   -1.2221   -2.6671 C   0  0  0  0  0
    1.0742   -0.0885   -3.6067 C   0  0  0  0  0
   -0.2303    0.4055   -3.0553 C   0  0  0  0  0
   -0.0516    0.8776   -1.6428 C   0  0  0  0  0
   -0.7467    1.5214   -3.9144 C   0  0  0  0  0
   -2.0513    2.0154   -3.3629 C   0  0  0  0  0
   -2.5676    3.1313   -4.2221 C   0  0  0  0  0
   -1.7857    3.5776   -5.4218 O   0  0  0  0  0
   -3.8660    3.8008   -3.8815 S   0  0  0  0  0
   -4.1549    4.8745   -4.8883 C   0  0  0  0  0
   -5.4532    5.5441   -4.5478 C   0  0  0  0  0
   -5.7421    6.6178   -5.5546 N   0  0  0  0  0
   -6.9907    7.4405   -5.4364 C   0  0  0  0  0
   -7.9506    7.1895   -4.3113 O   0  0  0  0  0
   -7.2796    8.5143   -6.4432 C   0  0  0  0  0
   -8.5779    9.1838   -6.1026 C   0  0  0  0  0
   -8.8668   10.2575   -7.1094 N   0  0  0  0  0
  -10.1155   11.0802   -6.9912 C   0  0  0  0  0
  -11.0753   10.8292   -5.8662 O   0  0  0  0  0
  -10.4043   12.1540   -7.9980 C   0  0  0  0  0
  -10.4680   11.5687   -9.3776 O   0  0  0  0  0
  -11.7027   12.8235   -7.6575 C   0  0  0  0  0
  -12.8052   11.8070   -7.6906 C   0  0  0  0  0
  -11.6389   13.4088   -6.2778 C   0  0  0  0  0
  -11.9915   13.8972   -8.6643 C   0  0  0  0  0
  -13.2899   14.5668   -8.3237 O   0  0  0  0  0
  -13.5787   15.6405   -9.3305 P   0  0  0  0  0
  -12.4762   16.6570   -9.2974 O   0  0  0  0  0
  -13.6424   15.0552  -10.7102 O   0  0  0  0  0
  -14.8771   16.3100   -8.9900 O   0  0  0  0  0
  -15.1659   17.3838   -9.9968 P   0  0  0  0  0
  -14.0634   18.4003   -9.9636 O   0  0  0  0  0
  -15.2297   16.7985  -11.3764 O   0  0  0  0  0
  -16.4643   18.0533   -9.6562 O   0  0  0  0  0
  -16.7531   19.1271  -10.6630 C   0  0  0  0  0
  -18.0515   19.7966  -10.3225 C   0  0  0  0  0
  -18.9393   19.4719  -11.4871 H   0  0  0  0  0
  -18.5985   19.2866   -8.9666 O   0  0  0  0  0
  -19.6057   20.3977   -8.5673 C   0  0  0  0  0
  -19.9107   20.3918   -7.0987 H   0  0  0  0  0
  -20.9258   20.2056   -9.2532 N   0  0  0  0  0
  -21.7577   21.1805   -9.6532 C   0  0  0  0  0
  -22.8891   20.6204  -10.2599 N   0  0  0  0  0
  -22.7742   19.3082  -10.2442 C   0  0  0  0  0
  -23.5965   18.1908  -10.7087 C   0  0  0  0  0
  -24.9118   18.4211  -11.3921 N   0  0  0  0  0
  -23.1118   16.9132  -10.4921 N   0  0  0  0  0
  -21.8838   16.7236   -9.8676 C   0  0  0  0  0
  -21.1335   17.7071   -9.4449 N   0  0  0  0  0
  -21.4954   18.9933   -9.5896 C   0  0  0  0  0
  -18.9259   21.7065   -9.0213 C   0  0  0  0  0
  -18.2150   22.3672   -7.8776 H   0  0  0  0  0
  -19.9429   22.6877   -9.5245 O   0  0  0  0  0
  -17.9377   21.3239  -10.1372 C   0  0  0  0  0
  -16.5371   21.7172   -9.7717 H   0  0  0  0  0
  -18.2712   22.0407  -11.4120 O   0  0  0  0  0
  -17.2922   21.6476  -12.4783 P   0  0  0  0  0
  -15.9089   22.0321  -12.0437 O   0  0  0  0  0
  -17.3262   20.1635  -12.6929 O   0  0  0  0  0
  -17.6256   22.3645  -13.7530 O   0  0  0  0  0
    0.9887    0.0535   -4.8892 C   0  0  0  0  0
    1.6152   -0.0178   -6.2502 C   0  0  0  0  0
    0.3161   -0.9675   -4.2664 C   0  0  0  0  0
    0.4618   -0.7334   -2.7919 H   0  0  0  0  0
   -1.1262   -0.9404   -4.6774 O   0  0  0  0  0
    0.8833   -2.3151   -4.5358 C   0  0  0  0  0
    1.1303   -3.0098   -3.1959 C   0  0  0  0  0
    0.6945   -4.4024   -2.8484 H   0  0  0  0  0
  1  2  1  0  0  0
  2  9  1  0  0  0
  2  4  1  0  0  0
  2  3  1  0  0  0
  4  5  1  0  0  0
  5  6  1  0  0  0
  6  8  1  0  0  0
  6 84  1  0  0  0
  6  7  1  0  0  0
  8  9  1  0  0  0
  8 10  1  0  0  0
 10 11  1  0  0  0
 11 14  1  0  0  0
 11 13  1  0  0  0
 11 12  1  0  0  0
 14 15  1  0  0  0
 14 84  1  0  0  0
 15 78  1  0  0  0
 15 17  1  0  0  0
 15 16  1  0  0  0
 17 18  1  0  0  0
 18 19  1  0  0  0
 19 78  1  0  0  0
 19 20  1  0  0  0
 20 22  1  0  0  0
 20 21  1  0  0  0
 22 23  1  0  0  0
 23 24  1  0  0  0
 24 26  1  0  0  0
 24 25  2  0  0  0
 26 27  1  0  0  0
 27 28  1  0  0  0
 28 29  1  0  0  0
 29 30  1  0  0  0
 30 32  1  0  0  0
 30 31  2  0  0  0
 32 33  1  0  0  0
 33 34  1  0  0  0
 34 35  1  0  0  0
 35 37  1  0  0  0
 35 36  2  0  0  0
 37 39  1  0  0  0
 37 38  1  0  0  0
 39 42  1  0  0  0
 39 41  1  0  0  0
 39 40  1  0  0  0
 42 43  1  0  0  0
 43 44  1  0  0  0
 44 47  1  0  0  0
 44 46  1  0  0  0
 44 45  2  0  0  0
 47 48  1  0  0  0
 48 51  1  0  0  0
 48 50  1  0  0  0
 48 49  2  0  0  0
 51 52  1  0  0  0
 52 53  1  0  0  0
 53 71  1  0  0  0
 53 55  1  0  0  0
 53 54  1  0  0  0
 55 56  1  0  0  0
 56 68  1  0  0  0
 56 58  1  0  0  0
 56 57  1  0  0  0
 58 67  1  0  0  0
 58 59  1  0  0  0
 59 60  2  0  0  0
 60 61  1  0  0  0
 61 67  2  0  0  0
 61 62  1  0  0  0
 62 64  2  0  0  0
 62 63  1  0  0  0
 64 65  1  0  0  0
 65 66  2  0  0  0
 66 67  1  0  0  0
 68 71  1  0  0  0
 68 70  1  0  0  0
 68 69  1  0  0  0
 71 73  1  0  0  0
 71 72  1  0  0  0
 73 74  1  0  0  0
 74 77  1  0  0  0
 74 76  1  0  0  0
 74 75  2  0  0  0
 78 80  1  0  0  0
 78 79  1  0  0  0
 80 83  1  0  0  0
 80 82  1  0  0  0
 80 81  1  0  0  0
 83 84  1  0  0  0
 84 85  1  0  0  0
M  END
> <SMILES>
[H]C1(O)(CCC6(C)(C(C1)CC([H])(O)C5C7([H])(CCC(C(C)CCC(=O)SCCNC(=O)CCNC(=O)C(O)C(C)(C)COP(=O)(O)OP(=O)(O)OCC4([H])(OC([H])(N3C=NC=2C(N)=NC=NC=23)C([H])(O)C4([H])(OP(=O)(O)O)))C7(C)(C([H])(O)CC56([H])))))

> <NAME>
CPD-202

> <BioCyc_link>
http://biocyc.org/HUMAN/NEW-IMAGE?object=CPD-202

> <BioCyc_name_HTML>
cholyl-CoA

> <CAS>


> <KEGG_ID>
C01794

> <toxTree.tree.cramer.CramerTreeResult>


> <FORMULA>


> <toxTree.tree.cramer.CramerRules>


$$$$
5-P-BETA-D-RIBOSYL-AMINE
 OpenBabel30120812303D

 18 18  0  0  0  0  0  0  0  0999 V2000
    1.0000    0.0000    0.0000 H   0  0  0  0  0
    2.5000    0.0000    0.0000 C   0  0  0  0  0
    2.9034    0.1217   -1.4396 N   0  0  0  0  0
    3.0599    1.1537    0.8679 O   0  0  0  0  0
    4.4904    0.6582    1.2094 C   0  0  0  0  0
    5.0630    1.3496    2.4111 H   0  0  0  0  0
    5.4454    0.9430    0.0883 C   0  0  0  0  0
    6.8129    0.4496    0.4579 O   0  0  0  0  0
    7.7679    0.7344   -0.6632 P   0  0  0  0  0
    7.3040    0.0219   -1.8990 O   0  0  0  0  0
    7.8069    2.2060   -0.9510 O   0  0  0  0  0
    9.1354    0.2411   -0.2936 O   0  0  0  0  0
    4.3235   -0.8601    1.4286 C   0  0  0  0  0
    4.1957   -1.1812    2.8882 H   0  0  0  0  0
    5.5233   -1.6057    0.9241 O   0  0  0  0  0
    3.0578   -1.2782    0.6595 C   0  0  0  0  0
    2.0467   -1.8906    1.5829 H   0  0  0  0  0
    3.3824   -2.3132   -0.3765 O   0  0  0  0  0
  1  2  1  0  0  0
  2 16  1  0  0  0
  2  4  1  0  0  0
  2  3  1  0  0  0
  4  5  1  0  0  0
  5 13  1  0  0  0
  5  7  1  0  0  0
  5  6  1  0  0  0
  7  8  1  0  0  0
  8  9  1  0  0  0
  9 12  1  0  0  0
  9 11  1  0  0  0
  9 10  2  0  0  0
 13 16  1  0  0  0
 13 15  1  0  0  0
 13 14  1  0  0  0
 16 18  1  0  0  0
 16 17  1  0  0  0
M  END
> <SMILES>
[H]C1(N)(OC([H])(COP(=O)(O)O)C([H])(O)C1([H])(O))

> <NAME>
5-P-BETA-D-RIBOSYL-AMINE

> <BioCyc_link>
http://biocyc.org/HUMAN/NEW-IMAGE?object=5-P-BETA-D-RIBOSYL-AMINE

> <BioCyc_name_HTML>
5-phospho-&beta;-D-ribosyl-amine

> <CAS>


> <KEGG_ID>
C03090

> <toxTree.tree.cramer.CramerTreeResult>


> <FORMULA>


> <toxTree.tree.cramer.CramerRules>


$$$$
D-MYO-INOSITOL-4-PHOSPHATE
 OpenBabel30120812303D

 20 20  0  0  0  0  0  0  0  0999 V2000
    1.0000    0.0000    0.0000 H   0  0  0  0  0
    2.5000    0.0000    0.0000 C   0  0  0  0  0
    2.9688    0.1628    1.4155 O   0  0  0  0  0
    3.0315   -1.3200   -0.5633 C   0  0  0  0  0
    2.5069   -2.4752    0.2370 O   0  0  0  0  0
    2.6379   -1.4463   -1.9315 C   0  0  0  0  0
    1.1440   -1.3129   -1.9536 H   0  0  0  0  0
    3.0711   -2.7838   -2.4545 O   0  0  0  0  0
    3.1450   -0.4160   -2.7815 C   0  0  0  0  0
    2.6818   -0.6625   -4.1867 H   0  0  0  0  0
    4.6449   -0.4238   -2.7694 O   0  0  0  0  0
    2.6181    0.9406   -2.3079 C   0  0  0  0  0
    3.1588    2.0403   -3.1730 O   0  0  0  0  0
    2.6315    3.3600   -2.6932 P   0  0  0  0  0
    1.1341    3.3543   -2.7815 O   0  0  0  0  0
    3.0211    3.5858   -1.2624 O   0  0  0  0  0
    3.1722    4.4597   -3.5583 O   0  0  0  0  0
    3.0321    1.1590   -0.8492 C   0  0  0  0  0
    2.4525    2.4503   -0.3527 H   0  0  0  0  0
    4.5256    1.2439   -0.7383 O   0  0  0  0  0
  1  2  1  0  0  0
  2 18  1  0  0  0
  2  4  1  0  0  0
  2  3  1  0  0  0
  4  6  1  0  0  0
  4  5  1  0  0  0
  6  9  1  0  0  0
  6  8  1  0  0  0
  6  7  1  0  0  0
  9 12  1  0  0  0
  9 11  1  0  0  0
  9 10  1  0  0  0
 12 18  1  0  0  0
 12 13  1  0  0  0
 13 14  1  0  0  0
 14 17  1  0  0  0
 14 16  1  0  0  0
 14 15  2  0  0  0
 18 20  1  0  0  0
 18 19  1  0  0  0
M  END
> <SMILES>
[H]C1(O)(C(O)C([H])(O)C([H])(O)C(OP(=O)(O)O)C1([H])(O))

> <NAME>
D-MYO-INOSITOL-4-PHOSPHATE

> <BioCyc_link>
http://biocyc.org/HUMAN/NEW-IMAGE?object=D-MYO-INOSITOL-4-PHOSPHATE

> <BioCyc_name_HTML>
D-<i>myo</i>-inositol

> <CAS>
46495-39-0

> <KEGG_ID>
C03546

> <toxTree.tree.cramer.CramerTreeResult>


> <FORMULA>


> <toxTree.tree.cramer.CramerRules>


$$$$
ADENYLOSUCC
 OpenBabel30120812303D

 35 37  0  0  0  0  0  0  0  0999 V2000
    1.0000    0.0000    0.0000 H   0  0  0  0  0
    2.5000    0.0000    0.0000 C   0  0  0  0  0
    2.9034    0.1217   -1.4396 C   0  0  0  0  0
    4.3999    0.1302   -1.5413 O   0  0  0  0  0
    4.8033    0.2519   -2.9809 P   0  0  0  0  0
    4.2639   -0.9208   -3.7449 O   0  0  0  0  0
    4.2352    1.5066   -3.5751 O   0  0  0  0  0
    6.2998    0.2605   -3.0825 O   0  0  0  0  0
    3.0599    1.1537    0.8679 O   0  0  0  0  0
    4.4904    0.6582    1.2094 C   0  0  0  0  0
    5.0630    1.3496    2.4111 H   0  0  0  0  0
    5.4454    0.9430    0.0883 N   0  0  0  0  0
    6.1375    0.0329   -0.6155 C   0  0  0  0  0
    6.9010    0.6737   -1.5995 N   0  0  0  0  0
    6.6943    1.9723   -1.5194 C   0  0  0  0  0
    7.1824    3.1454   -2.2447 C   0  0  0  0  0
    6.7152    4.3825   -1.8381 N   0  0  0  0  0
    5.8084    4.4812   -0.7884 C   0  0  0  0  0
    5.3597    3.4468   -0.1271 N   0  0  0  0  0
    5.7422    2.1921   -0.4204 C   0  0  0  0  0
    8.1503    3.0122   -3.3829 N   0  0  0  0  0
    8.6311    4.2356   -4.1055 C   0  0  0  0  0
    9.3030    5.1742   -3.1475 C   0  0  0  0  0
    8.3366    5.5652   -2.0689 C   0  0  0  0  0
    6.9399    5.0184   -2.0790 O   0  0  0  0  0
    8.7671    6.5031   -0.9803 O   0  0  0  0  0
    9.5835    3.8333   -5.1923 C   0  0  0  0  0
    9.9099    2.3848   -5.4051 O   0  0  0  0  0
   10.2093    4.8795   -6.0663 O   0  0  0  0  0
    4.3235   -0.8601    1.4286 C   0  0  0  0  0
    4.1957   -1.1812    2.8882 H   0  0  0  0  0
    5.5233   -1.6057    0.9241 O   0  0  0  0  0
    3.0578   -1.2782    0.6595 C   0  0  0  0  0
    2.0467   -1.8906    1.5829 H   0  0  0  0  0
    3.3824   -2.3132   -0.3765 O   0  0  0  0  0
  1  2  1  0  0  0
  2 33  1  0  0  0
  2  9  1  0  0  0
  2  3  1  0  0  0
  3  4  1  0  0  0
  4  5  1  0  0  0
  5  8  1  0  0  0
  5  7  1  0  0  0
  5  6  2  0  0  0
  9 10  1  0  0  0
 10 30  1  0  0  0
 10 12  1  0  0  0
 10 11  1  0  0  0
 12 20  1  0  0  0
 12 13  1  0  0  0
 13 14  2  0  0  0
 14 15  1  0  0  0
 15 20  2  0  0  0
 15 16  1  0  0  0
 16 17  2  0  0  0
 16 21  1  0  0  0
 17 18  1  0  0  0
 18 19  2  0  0  0
 19 20  1  0  0  0
 21 22  1  0  0  0
 22 27  1  0  0  0
 22 23  1  0  0  0
 23 24  1  0  0  0
 24 26  1  0  0  0
 24 25  2  0  0  0
 27 29  1  0  0  0
 27 28  2  0  0  0
 30 33  1  0  0  0
 30 32  1  0  0  0
 30 31  1  0  0  0
 33 35  1  0  0  0
 33 34  1  0  0  0
M  END
> <SMILES>
[H]C3(COP(=O)(O)O)(OC([H])(N2C=NC=1C(=NC=NC=12)NC(CC(=O)O)C(=O)O)C([H])(O)C3([H])(O))

> <NAME>
ADENYLOSUCC

> <BioCyc_link>
http://biocyc.org/HUMAN/NEW-IMAGE?object=ADENYLOSUCC

> <BioCyc_name_HTML>
adenylo-succinate

> <CAS>
19240-42-7

> <KEGG_ID>
C03794

> <toxTree.tree.cramer.CramerTreeResult>


> <FORMULA>


> <toxTree.tree.cramer.CramerRules>


$$$$
5-PHOSPHO-RIBOSYL-GLYCINEAMIDE
 OpenBabel30120812303D

 20 20  0  0  0  0  0  0  0  0999 V2000
    1.0000    0.0000    0.0000 H   0  0  0  0  0
    2.5000    0.0000    0.0000 C   0  0  0  0  0
    2.9034    0.1217   -1.4396 C   0  0  0  0  0
    4.3999    0.1302   -1.5413 O   0  0  0  0  0
    4.8033    0.2519   -2.9809 P   0  0  0  0  0
    4.2639   -0.9208   -3.7449 O   0  0  0  0  0
    4.2352    1.5066   -3.5751 O   0  0  0  0  0
    6.2998    0.2605   -3.0825 O   0  0  0  0  0
    3.0599    1.1537    0.8679 O   0  0  0  0  0
    4.4904    0.6582    1.2094 C   0  0  0  0  0
    5.0630    1.3496    2.4111 H   0  0  0  0  0
    5.4454    0.9430    0.0883 N   0  0  0  0  0
    6.8864    0.5448    0.2111 C   0  0  0  0  0
    7.3723   -0.1381    1.4551 O   0  0  0  0  0
    7.8414    0.8295   -0.9100 C   0  0  0  0  0
    9.2088    0.3362   -0.5404 N   0  0  0  0  0
    4.3235   -0.8601    1.4286 C   0  0  0  0  0
    5.5233   -1.6057    0.9241 O   0  0  0  0  0
    3.0578   -1.2782    0.6595 C   0  0  0  0  0
    3.3824   -2.3132   -0.3765 O   0  0  0  0  0
  1  2  1  0  0  0
  2 19  1  0  0  0
  2  9  1  0  0  0
  2  3  1  0  0  0
  3  4  1  0  0  0
  4  5  1  0  0  0
  5  8  1  0  0  0
  5  7  1  0  0  0
  5  6  2  0  0  0
  9 10  1  0  0  0
 10 17  1  0  0  0
 10 12  1  0  0  0
 10 11  1  0  0  0
 12 13  1  0  0  0
 13 15  1  0  0  0
 13 14  2  0  0  0
 15 16  1  0  0  0
 17 19  1  0  0  0
 17 18  1  0  0  0
 19 20  1  0  0  0
M  END
> <SMILES>
[H]C1(COP(=O)(O)O)(OC([H])(NC(=O)CN)C(O)C1(O))

> <NAME>
5-PHOSPHO-RIBOSYL-GLYCINEAMIDE

> <BioCyc_link>
http://biocyc.org/HUMAN/NEW-IMAGE?object=5-PHOSPHO-RIBOSYL-GLYCINEAMIDE

> <BioCyc_name_HTML>
5-phospho-ribosyl-glycineamide

> <CAS>


> <KEGG_ID>
C03838

> <toxTree.tree.cramer.CramerTreeResult>


> <FORMULA>


> <toxTree.tree.cramer.CramerRules>


$$$$
N-ACETYL-D-MANNOSAMINE-6P
 OpenBabel30120812303D

 24 24  0  0  0  0  0  0  0  0999 V2000
    1.0000    0.0000    0.0000 H   0  0  0  0  0
    2.5000    0.0000    0.0000 C   0  0  0  0  0
    2.9688    0.1628    1.4155 O   0  0  0  0  0
    3.0315   -1.3200   -0.5633 O   0  0  0  0  0
    2.6379   -1.4463   -1.9315 C   0  0  0  0  0
    1.1440   -1.3129   -1.9536 H   0  0  0  0  0
    3.0711   -2.7838   -2.4545 C   0  0  0  0  0
    2.6585   -2.9175   -3.8904 O   0  0  0  0  0
    3.0918   -4.2549   -4.4134 P   0  0  0  0  0
    4.5849   -4.3618   -4.3174 O   0  0  0  0  0
    2.4842   -5.3546   -3.5940 O   0  0  0  0  0
    2.6792   -4.3886   -5.8493 O   0  0  0  0  0
    3.1450   -0.4160   -2.7815 C   0  0  0  0  0
    2.6818   -0.6625   -4.1867 H   0  0  0  0  0
    4.6449   -0.4238   -2.7694 O   0  0  0  0  0
    2.6181    0.9406   -2.3079 C   0  0  0  0  0
    1.1216    0.9571   -2.4091 H   0  0  0  0  0
    3.1588    2.0403   -3.1730 O   0  0  0  0  0
    3.0321    1.1590   -0.8492 C   0  0  0  0  0
    2.4525    2.4503   -0.3527 H   0  0  0  0  0
    4.5256    1.2439   -0.7383 N   0  0  0  0  0
    5.1673    1.4566    0.6007 C   0  0  0  0  0
    4.3155    1.5844    1.8288 C   0  0  0  0  0
    6.6608    1.5415    0.7116 O   0  0  0  0  0
  1  2  1  0  0  0
  2 19  1  0  0  0
  2  4  1  0  0  0
  2  3  1  0  0  0
  4  5  1  0  0  0
  5 13  1  0  0  0
  5  7  1  0  0  0
  5  6  1  0  0  0
  7  8  1  0  0  0
  8  9  1  0  0  0
  9 12  1  0  0  0
  9 11  1  0  0  0
  9 10  2  0  0  0
 13 16  1  0  0  0
 13 15  1  0  0  0
 13 14  1  0  0  0
 16 19  1  0  0  0
 16 18  1  0  0  0
 16 17  1  0  0  0
 19 21  1  0  0  0
 19 20  1  0  0  0
 21 22  1  0  0  0
 22 24  2  0  0  0
 22 23  1  0  0  0
M  END
> <SMILES>
[H]C1(O)(OC([H])(COP(=O)(O)O)C([H])(O)C([H])(O)C1([H])(NC(C)=O))

> <NAME>
N-ACETYL-D-MANNOSAMINE-6P

> <BioCyc_link>
http://biocyc.org/HUMAN/NEW-IMAGE?object=N-ACETYL-D-MANNOSAMINE-6P

> <BioCyc_name_HTML>
<i>N</i>-acetyl-D-mannosamine-6-phosphate

> <CAS>
157296-99-6

> <KEGG_ID>
C04257

> <toxTree.tree.cramer.CramerTreeResult>


> <FORMULA>


> <toxTree.tree.cramer.CramerRules>


$$$$
R-4-PHOSPHOPANTOTHENOYL-L-CYSTEINE
 OpenBabel30120812303D

 27 26  0  0  0  0  0  0  0  0999 V2000
    1.0000    0.0000    0.0000 H   0  0  0  0  0
    2.5000    0.0000    0.0000 C   0  0  0  0  0
    2.9931   -0.6977    1.2329 C   0  0  0  0  0
    2.4869    0.0185    2.4498 S   0  0  0  0  0
    3.0193   -0.7348   -1.2002 N   0  0  0  0  0
    2.6508   -2.1726   -1.4167 C   0  0  0  0  0
    1.7630   -2.8756   -0.4330 O   0  0  0  0  0
    3.1701   -2.9074   -2.6168 C   0  0  0  0  0
    2.6597   -4.3178   -2.6000 C   0  0  0  0  0
    3.1790   -5.0526   -3.8001 N   0  0  0  0  0
    2.8105   -6.4905   -4.0166 C   0  0  0  0  0
    1.9227   -7.1935   -3.0330 O   0  0  0  0  0
    3.3298   -7.2253   -5.2168 C   0  0  0  0  0
    2.8467   -6.5409   -6.4611 H   0  0  0  0  0
    4.8298   -7.2158   -5.2226 O   0  0  0  0  0
    2.8194   -8.6357   -5.1999 C   0  0  0  0  0
    3.3025   -9.3200   -3.9556 C   0  0  0  0  0
    1.3194   -8.6451   -5.1941 C   0  0  0  0  0
    3.3387   -9.3705   -6.4001 C   0  0  0  0  0
    2.8283  -10.7809   -6.3832 O   0  0  0  0  0
    3.3476  -11.5157   -7.5834 P   0  0  0  0  0
    2.8645  -10.8313   -8.8277 O   0  0  0  0  0
    4.8476  -11.5062   -7.5891 O   0  0  0  0  0
    2.8372  -12.9261   -7.5665 O   0  0  0  0  0
    3.0007    1.4140    0.0000 C   0  0  0  0  0
    2.0265    2.5546    0.0000 O   0  0  0  0  0
    4.4756    1.6873    0.0000 O   0  0  0  0  0
  1  2  1  0  0  0
  2 25  1  0  0  0
  2  5  1  0  0  0
  2  3  1  0  0  0
  3  4  1  0  0  0
  5  6  1  0  0  0
  6  8  1  0  0  0
  6  7  2  0  0  0
  8  9  1  0  0  0
  9 10  1  0  0  0
 10 11  1  0  0  0
 11 13  1  0  0  0
 11 12  2  0  0  0
 13 16  1  0  0  0
 13 15  1  0  0  0
 13 14  1  0  0  0
 16 19  1  0  0  0
 16 18  1  0  0  0
 16 17  1  0  0  0
 19 20  1  0  0  0
 20 21  1  0  0  0
 21 24  1  0  0  0
 21 23  1  0  0  0
 21 22  2  0  0  0
 25 27  1  0  0  0
 25 26  2  0  0  0
M  END
> <SMILES>
[H]C(CS)(NC(=O)CCNC(=O)C([H])(O)C(C)(C)COP(=O)(O)O)C(=O)O

> <NAME>
R-4-PHOSPHOPANTOTHENOYL-L-CYSTEINE

> <BioCyc_link>
http://biocyc.org/HUMAN/NEW-IMAGE?object=R-4-PHOSPHOPANTOTHENOYL-L-CYSTEINE

> <BioCyc_name_HTML>
R-4'-phosphopantothenoyl-L-cysteine

> <CAS>


> <KEGG_ID>
C04352

> <toxTree.tree.cramer.CramerTreeResult>


> <FORMULA>


> <toxTree.tree.cramer.CramerRules>


$$$$
5-P-RIBOSYL-N-FORMYLGLYCINEAMIDE
 OpenBabel30120812303D

 22 22  0  0  0  0  0  0  0  0999 V2000
    1.0000    0.0000    0.0000 H   0  0  0  0  0
    2.5000    0.0000    0.0000 C   0  0  0  0  0
    2.9034    0.1217   -1.4396 C   0  0  0  0  0
    4.3999    0.1302   -1.5413 O   0  0  0  0  0
    4.8033    0.2519   -2.9809 P   0  0  0  0  0
    4.2639   -0.9208   -3.7449 O   0  0  0  0  0
    4.2352    1.5066   -3.5751 O   0  0  0  0  0
    6.2998    0.2605   -3.0825 O   0  0  0  0  0
    3.0599    1.1537    0.8679 O   0  0  0  0  0
    4.4904    0.6582    1.2094 C   0  0  0  0  0
    5.0630    1.3496    2.4111 H   0  0  0  0  0
    5.4454    0.9430    0.0883 N   0  0  0  0  0
    6.8864    0.5448    0.2111 C   0  0  0  0  0
    7.3723   -0.1381    1.4551 O   0  0  0  0  0
    7.8414    0.8295   -0.9100 C   0  0  0  0  0
    9.2088    0.3362   -0.5404 N   0  0  0  0  0
   10.3506    0.5024   -1.4989 C   0  0  0  0  0
   11.7181    0.0091   -1.1293 O   0  0  0  0  0
    4.3235   -0.8601    1.4286 C   0  0  0  0  0
    5.5233   -1.6057    0.9241 O   0  0  0  0  0
    3.0578   -1.2782    0.6595 C   0  0  0  0  0
    3.3824   -2.3132   -0.3765 O   0  0  0  0  0
  1  2  1  0  0  0
  2 21  1  0  0  0
  2  9  1  0  0  0
  2  3  1  0  0  0
  3  4  1  0  0  0
  4  5  1  0  0  0
  5  8  1  0  0  0
  5  7  1  0  0  0
  5  6  2  0  0  0
  9 10  1  0  0  0
 10 19  1  0  0  0
 10 12  1  0  0  0
 10 11  1  0  0  0
 12 13  1  0  0  0
 13 15  1  0  0  0
 13 14  2  0  0  0
 15 16  1  0  0  0
 16 17  1  0  0  0
 17 18  2  0  0  0
 19 21  1  0  0  0
 19 20  1  0  0  0
 21 22  1  0  0  0
M  END
> <SMILES>
[H]C1(COP(=O)(O)O)(OC([H])(NC(=O)CNC=O)C(O)C1(O))

> <NAME>
5-P-RIBOSYL-N-FORMYLGLYCINEAMIDE

> <BioCyc_link>
http://biocyc.org/HUMAN/NEW-IMAGE?object=5-P-RIBOSYL-N-FORMYLGLYCINEAMIDE

> <BioCyc_name_HTML>
5'-phosphoribosyl-<i>N</i>-formylglycineamide

> <CAS>


> <KEGG_ID>
C04376

> <toxTree.tree.cramer.CramerTreeResult>


> <FORMULA>


> <toxTree.tree.cramer.CramerRules>


$$$$
ALPHA-RIBAZOLE-5-P
 OpenBabel30120812303D

 28 30  0  0  0  0  0  0  0  0999 V2000
    1.0000    0.0000    0.0000 H   0  0  0  0  0
    2.5000    0.0000    0.0000 C   0  0  0  0  0
    2.9034    0.1217   -1.4396 C   0  0  0  0  0
    4.3999    0.1302   -1.5413 O   0  0  0  0  0
    4.8033    0.2519   -2.9809 P   0  0  0  0  0
    4.2639   -0.9208   -3.7449 O   0  0  0  0  0
    4.2352    1.5066   -3.5751 O   0  0  0  0  0
    6.2998    0.2605   -3.0825 O   0  0  0  0  0
    3.0599    1.1537    0.8679 O   0  0  0  0  0
    4.4904    0.6582    1.2094 C   0  0  0  0  0
    5.0630    1.3496    2.4111 H   0  0  0  0  0
    5.4454    0.9430    0.0883 N   0  0  0  0  0
    6.1375    0.0329   -0.6155 C   0  0  0  0  0
    6.9010    0.6737   -1.5995 N   0  0  0  0  0
    6.6943    1.9723   -1.5194 C   0  0  0  0  0
    7.1824    3.1454   -2.2447 C   0  0  0  0  0
    6.7152    4.3825   -1.8381 C   0  0  0  0  0
    7.1892    5.6241   -2.5335 C   0  0  0  0  0
    5.8084    4.4812   -0.7884 C   0  0  0  0  0
    5.3204    5.8440   -0.3949 C   0  0  0  0  0
    5.3597    3.4468   -0.1271 C   0  0  0  0  0
    5.7422    2.1921   -0.4204 C   0  0  0  0  0
    4.3235   -0.8601    1.4286 C   0  0  0  0  0
    4.1957   -1.1812    2.8882 H   0  0  0  0  0
    5.5233   -1.6057    0.9241 O   0  0  0  0  0
    3.0578   -1.2782    0.6595 C   0  0  0  0  0
    2.0467   -1.8906    1.5829 H   0  0  0  0  0
    3.3824   -2.3132   -0.3765 O   0  0  0  0  0
  1  2  1  0  0  0
  2 26  1  0  0  0
  2  9  1  0  0  0
  2  3  1  0  0  0
  3  4  1  0  0  0
  4  5  1  0  0  0
  5  8  1  0  0  0
  5  7  1  0  0  0
  5  6  2  0  0  0
  9 10  1  0  0  0
 10 23  1  0  0  0
 10 12  1  0  0  0
 10 11  1  0  0  0
 12 22  1  0  0  0
 12 13  1  0  0  0
 13 14  2  0  0  0
 14 15  1  0  0  0
 15 22  2  0  0  0
 15 16  1  0  0  0
 16 17  2  0  0  0
 17 19  1  0  0  0
 17 18  1  0  0  0
 19 21  2  0  0  0
 19 20  1  0  0  0
 21 22  1  0  0  0
 23 26  1  0  0  0
 23 25  1  0  0  0
 23 24  1  0  0  0
 26 28  1  0  0  0
 26 27  1  0  0  0
M  END
> <SMILES>
[H]C3(COP(=O)(O)O)(OC([H])(N2C=NC=1C=C(C)C(C)=CC=12)C([H])(O)C3([H])(O))

> <NAME>
ALPHA-RIBAZOLE-5-P

> <BioCyc_link>
http://biocyc.org/HUMAN/NEW-IMAGE?object=ALPHA-RIBAZOLE-5-P

> <BioCyc_name_HTML>
&alpha;-ribazole-5'-P

> <CAS>


> <KEGG_ID>
C04778

> <toxTree.tree.cramer.CramerTreeResult>


> <FORMULA>


> <toxTree.tree.cramer.CramerRules>


$$$$
UDP-N-ACETYL-D-GLUCOSAMINE
 OpenBabel30120812303D

 48 50  0  0  0  0  0  0  0  0999 V2000
    1.0000    0.0000    0.0000 H   0  0  0  0  0
    2.5000    0.0000    0.0000 C   0  0  0  0  0
    2.9688    0.1628    1.4155 C   0  0  0  0  0
    4.4684    0.1666    1.4490 O   0  0  0  0  0
    3.0315   -1.3200   -0.5633 O   0  0  0  0  0
    2.6379   -1.4463   -1.9315 C   0  0  0  0  0
    1.1440   -1.3129   -1.9536 H   0  0  0  0  0
    3.0711   -2.7838   -2.4545 O   0  0  0  0  0
    2.6585   -2.9175   -3.8904 P   0  0  0  0  0
    1.1654   -2.8106   -3.9864 O   0  0  0  0  0
    3.2661   -1.8178   -4.7099 O   0  0  0  0  0
    3.0918   -4.2549   -4.4134 O   0  0  0  0  0
    2.6792   -4.3886   -5.8493 P   0  0  0  0  0
    1.1861   -4.2818   -5.9453 O   0  0  0  0  0
    3.2867   -3.2889   -6.6688 O   0  0  0  0  0
    3.1125   -5.7261   -6.3724 O   0  0  0  0  0
    2.6998   -5.8598   -7.8083 C   0  0  0  0  0
    3.1331   -7.1972   -8.3313 C   0  0  0  0  0
    3.3235   -7.0019   -9.8063 H   0  0  0  0  0
    4.3834   -7.6235   -7.5234 O   0  0  0  0  0
    4.4440   -9.1539   -7.7740 C   0  0  0  0  0
    5.2592   -9.8707   -6.7389 H   0  0  0  0  0
    5.0993   -9.4633   -9.0874 N   0  0  0  0  0
    5.1455  -10.7680   -9.5316 C   0  0  0  0  0
    5.7202  -11.0615  -10.7698 C   0  0  0  0  0
    6.2392  -10.0291  -11.5528 C   0  0  0  0  0
    6.8586  -10.3342  -12.8845 O   0  0  0  0  0
    6.1812   -8.7280  -11.0995 N   0  0  0  0  0
    5.6102   -8.4437   -9.8711 C   0  0  0  0  0
    5.5450   -7.0252   -9.3876 O   0  0  0  0  0
    2.9660   -9.5976   -7.7693 C   0  0  0  0  0
    2.5733  -10.1429   -6.4283 H   0  0  0  0  0
    2.7362  -10.6936   -8.7672 O   0  0  0  0  0
    2.1329   -8.3532   -8.1235 C   0  0  0  0  0
    1.1591   -8.0300   -7.0293 H   0  0  0  0  0
    1.3267   -8.5889   -9.3663 O   0  0  0  0  0
    3.1450   -0.4160   -2.7815 C   0  0  0  0  0
    2.6818   -0.6625   -4.1867 H   0  0  0  0  0
    4.6449   -0.4238   -2.7694 N   0  0  0  0  0
    5.4067    0.5734   -3.5911 C   0  0  0  0  0
    4.6686    1.5784   -4.4249 C   0  0  0  0  0
    6.9067    0.5656   -3.5791 O   0  0  0  0  0
    2.6181    0.9406   -2.3079 C   0  0  0  0  0
    1.1216    0.9571   -2.4091 H   0  0  0  0  0
    3.1588    2.0403   -3.1730 O   0  0  0  0  0
    3.0321    1.1590   -0.8492 C   0  0  0  0  0
    2.4525    2.4503   -0.3527 H   0  0  0  0  0
    4.5256    1.2439   -0.7383 O   0  0  0  0  0
  1  2  1  0  0  0
  2 46  1  0  0  0
  2  5  1  0  0  0
  2  3  1  0  0  0
  3  4  1  0  0  0
  5  6  1  0  0  0
  6 37  1  0  0  0
  6  8  1  0  0  0
  6  7  1  0  0  0
  8  9  1  0  0  0
  9 12  1  0  0  0
  9 11  1  0  0  0
  9 10  2  0  0  0
 12 13  1  0  0  0
 13 16  1  0  0  0
 13 15  1  0  0  0
 13 14  2  0  0  0
 16 17  1  0  0  0
 17 18  1  0  0  0
 18 34  1  0  0  0
 18 20  1  0  0  0
 18 19  1  0  0  0
 20 21  1  0  0  0
 21 31  1  0  0  0
 21 23  1  0  0  0
 21 22  1  0  0  0
 23 29  1  0  0  0
 23 24  1  0  0  0
 24 25  2  0  0  0
 25 26  1  0  0  0
 26 28  1  0  0  0
 26 27  2  0  0  0
 28 29  1  0  0  0
 29 30  2  0  0  0
 31 34  1  0  0  0
 31 33  1  0  0  0
 31 32  1  0  0  0
 34 36  1  0  0  0
 34 35  1  0  0  0
 37 43  1  0  0  0
 37 39  1  0  0  0
 37 38  1  0  0  0
 39 40  1  0  0  0
 40 42  2  0  0  0
 40 41  1  0  0  0
 43 46  1  0  0  0
 43 45  1  0  0  0
 43 44  1  0  0  0
 46 48  1  0  0  0
 46 47  1  0  0  0
M  END
> <SMILES>
[H]C3(CO)(OC([H])(OP(=O)(O)OP(=O)(O)OCC2([H])(OC([H])(N1C=CC(=O)NC1(=O))C([H])(O)C2([H])(O)))C([H])(NC(C)=O)C([H])(O)C3([H])(O))

> <NAME>
UDP-N-ACETYL-D-GLUCOSAMINE

> <BioCyc_link>
http://biocyc.org/HUMAN/NEW-IMAGE?object=UDP-N-ACETYL-D-GLUCOSAMINE

> <BioCyc_name_HTML>
UDP-<i>N</i>-acetyl-D-glucosamine

> <CAS>
528-04-1

> <KEGG_ID>
C00043

> <toxTree.tree.cramer.CramerTreeResult>


> <FORMULA>


> <toxTree.tree.cramer.CramerRules>


$$$$
FARNESYL-PP
 OpenBabel30120812303D

 24 23  0  0  0  0  0  0  0  0999 V2000
    1.0000    0.0000    0.0000 C   0  0  0  0  0
    2.5000    0.0000    0.0000 C   0  0  0  0  0
    3.2500   -1.2990    0.0000 C   0  0  0  0  0
    3.2500    1.2990    0.0000 C   0  0  0  0  0
    4.7500    1.2990    0.0000 C   0  0  0  0  0
    5.2507    2.7130    0.0000 C   0  0  0  0  0
    6.7507    2.7130    0.0000 C   0  0  0  0  0
    7.5007    1.4140    0.0000 C   0  0  0  0  0
    7.5007    4.0120    0.0000 C   0  0  0  0  0
    9.0007    4.0120    0.0000 C   0  0  0  0  0
    9.5014    5.4260    0.0000 C   0  0  0  0  0
   11.0014    5.4260    0.0000 C   0  0  0  0  0
   11.7514    4.1270    0.0000 C   0  0  0  0  0
   11.7514    6.7250    0.0000 C   0  0  0  0  0
   13.2514    6.7250    0.0000 C   0  0  0  0  0
   13.7521    8.1390    0.0000 O   0  0  0  0  0
   15.2521    8.1390    0.0000 P   0  0  0  0  0
   15.7452    7.4413    1.2329 O   0  0  0  0  0
   15.7714    7.4042   -1.2002 O   0  0  0  0  0
   15.7528    9.5530    0.0000 O   0  0  0  0  0
   17.2528    9.5530    0.0000 P   0  0  0  0  0
   17.7459    8.8553    1.2329 O   0  0  0  0  0
   17.7722    8.8182   -1.2002 O   0  0  0  0  0
   17.7536   10.9669    0.0000 O   0  0  0  0  0
  1  2  1  0  0  0
  2  4  2  0  0  0
  2  3  1  0  0  0
  4  5  1  0  0  0
  5  6  1  0  0  0
  6  7  1  0  0  0
  7  9  2  0  0  0
  7  8  1  0  0  0
  9 10  1  0  0  0
 10 11  1  0  0  0
 11 12  1  0  0  0
 12 14  2  0  0  0
 12 13  1  0  0  0
 14 15  1  0  0  0
 15 16  1  0  0  0
 16 17  1  0  0  0
 17 20  1  0  0  0
 17 19  1  0  0  0
 17 18  2  0  0  0
 20 21  1  0  0  0
 21 24  1  0  0  0
 21 23  1  0  0  0
 21 22  2  0  0  0
M  END
> <SMILES>
CC(C)=CCCC(C)=CCCC(C)=CCOP(=O)(O)OP(=O)(O)O

> <NAME>
FARNESYL-PP

> <BioCyc_link>
http://biocyc.org/HUMAN/NEW-IMAGE?object=FARNESYL-PP

> <BioCyc_name_HTML>
all-<i>trans</i>-farnesyl

> <CAS>
13058-04-3

> <KEGG_ID>
C00448

> <toxTree.tree.cramer.CramerTreeResult>


> <FORMULA>


> <toxTree.tree.cramer.CramerRules>


$$$$
ADENOSINE_DIPHOSPHATE_RIBOSE
 OpenBabel30120812303D

 44 47  0  0  0  0  0  0  0  0999 V2000
    1.0000    0.0000    0.0000 H   0  0  0  0  0
    2.5000    0.0000    0.0000 C   0  0  0  0  0
    2.9034    0.1217   -1.4396 O   0  0  0  0  0
    3.0599    1.1537    0.8679 O   0  0  0  0  0
    4.4904    0.6582    1.2094 C   0  0  0  0  0
    5.0630    1.3496    2.4111 H   0  0  0  0  0
    5.4454    0.9430    0.0883 C   0  0  0  0  0
    6.8129    0.4496    0.4579 O   0  0  0  0  0
    7.7679    0.7344   -0.6632 P   0  0  0  0  0
    7.3040    0.0219   -1.8990 O   0  0  0  0  0
    7.8069    2.2060   -0.9510 O   0  0  0  0  0
    9.1354    0.2411   -0.2936 O   0  0  0  0  0
   10.0904    0.5258   -1.4147 P   0  0  0  0  0
    9.6265   -0.1867   -2.6505 O   0  0  0  0  0
   10.1294    1.9974   -1.7025 O   0  0  0  0  0
   11.4578    0.0325   -1.0451 O   0  0  0  0  0
   12.4128    0.3172   -2.1662 C   0  0  0  0  0
   13.7803   -0.1761   -1.7966 C   0  0  0  0  0
   14.6270    0.1314   -2.9960 H   0  0  0  0  0
   14.2923    0.5078   -0.5051 O   0  0  0  0  0
   15.3962   -0.4685   -0.0186 C   0  0  0  0  0
   15.7121   -0.2943    1.4374 H   0  0  0  0  0
   16.6885   -0.2305   -0.7420 N   0  0  0  0  0
   17.5375   -1.1753   -1.1767 C   0  0  0  0  0
   18.6303   -0.5748   -1.8148 N   0  0  0  0  0
   18.4742    0.7329   -1.7845 C   0  0  0  0  0
   19.2451    1.8794   -2.2660 C   0  0  0  0  0
   20.5441    1.6964   -2.9932 N   0  0  0  0  0
   18.7273    3.1392   -2.0233 N   0  0  0  0  0
   17.5148    3.2848   -1.3580 C   0  0  0  0  0
   16.8103    2.2748   -0.9195 N   0  0  0  0  0
   17.2080    1.0018   -1.0865 C   0  0  0  0  0
   14.8296   -1.8688   -0.3339 C   0  0  0  0  0
   14.1890   -2.4747    0.8796 H   0  0  0  0  0
   15.9241   -2.8026   -0.7581 O   0  0  0  0  0
   13.8022   -1.6824   -1.4643 C   0  0  0  0  0
   12.4445   -2.1579   -1.0392 H   0  0  0  0  0
   14.1861   -2.4877   -2.6702 O   0  0  0  0  0
    4.3235   -0.8601    1.4286 C   0  0  0  0  0
    4.1957   -1.1812    2.8882 H   0  0  0  0  0
    5.5233   -1.6057    0.9241 O   0  0  0  0  0
    3.0578   -1.2782    0.6595 C   0  0  0  0  0
    2.0467   -1.8906    1.5829 H   0  0  0  0  0
    3.3824   -2.3132   -0.3765 O   0  0  0  0  0
  1  2  1  0  0  0
  2 42  1  0  0  0
  2  4  1  0  0  0
  2  3  1  0  0  0
  4  5  1  0  0  0
  5 39  1  0  0  0
  5  7  1  0  0  0
  5  6  1  0  0  0
  7  8  1  0  0  0
  8  9  1  0  0  0
  9 12  1  0  0  0
  9 11  1  0  0  0
  9 10  2  0  0  0
 12 13  1  0  0  0
 13 16  1  0  0  0
 13 15  1  0  0  0
 13 14  2  0  0  0
 16 17  1  0  0  0
 17 18  1  0  0  0
 18 36  1  0  0  0
 18 20  1  0  0  0
 18 19  1  0  0  0
 20 21  1  0  0  0
 21 33  1  0  0  0
 21 23  1  0  0  0
 21 22  1  0  0  0
 23 32  1  0  0  0
 23 24  1  0  0  0
 24 25  2  0  0  0
 25 26  1  0  0  0
 26 32  2  0  0  0
 26 27  1  0  0  0
 27 29  2  0  0  0
 27 28  1  0  0  0
 29 30  1  0  0  0
 30 31  2  0  0  0
 31 32  1  0  0  0
 33 36  1  0  0  0
 33 35  1  0  0  0
 33 34  1  0  0  0
 36 38  1  0  0  0
 36 37  1  0  0  0
 39 42  1  0  0  0
 39 41  1  0  0  0
 39 40  1  0  0  0
 42 44  1  0  0  0
 42 43  1  0  0  0
M  END
> <SMILES>
[H]C4(O)(OC([H])(COP(=O)(O)OP(=O)(O)OCC3([H])(OC([H])(N2C=NC=1C(N)=NC=NC=12)C([H])(O)C3([H])(O)))C([H])(O)C4([H])(O))

> <NAME>
ADENOSINE_DIPHOSPHATE_RIBOSE

> <BioCyc_link>
http://biocyc.org/HUMAN/NEW-IMAGE?object=ADENOSINE_DIPHOSPHATE_RIBOSE

> <BioCyc_name_HTML>
ADP-ribose

> <CAS>
20762-30-5

> <KEGG_ID>
C00301

> <toxTree.tree.cramer.CramerTreeResult>


> <FORMULA>


> <toxTree.tree.cramer.CramerRules>


$$$$
GERANYL-PP
 OpenBabel30120812303D

 19 18  0  0  0  0  0  0  0  0999 V2000
    1.0000    0.0000    0.0000 C   0  0  0  0  0
    2.5000    0.0000    0.0000 C   0  0  0  0  0
    3.2500   -1.2990    0.0000 C   0  0  0  0  0
    3.2500    1.2990    0.0000 C   0  0  0  0  0
    4.7500    1.2990    0.0000 C   0  0  0  0  0
    5.2507    2.7130    0.0000 C   0  0  0  0  0
    6.7507    2.7130    0.0000 C   0  0  0  0  0
    7.5007    1.4140    0.0000 C   0  0  0  0  0
    7.5007    4.0120    0.0000 C   0  0  0  0  0
    9.0007    4.0120    0.0000 C   0  0  0  0  0
    9.5014    5.4260    0.0000 O   0  0  0  0  0
   11.0014    5.4260    0.0000 P   0  0  0  0  0
   11.4945    4.7283    1.2329 O   0  0  0  0  0
   11.5207    4.6912   -1.2002 O   0  0  0  0  0
   11.5021    6.8400    0.0000 O   0  0  0  0  0
   13.0021    6.8400    0.0000 P   0  0  0  0  0
   13.4952    6.1423    1.2329 O   0  0  0  0  0
   13.5214    6.1052   -1.2002 O   0  0  0  0  0
   13.5028    8.2539    0.0000 O   0  0  0  0  0
  1  2  1  0  0  0
  2  4  2  0  0  0
  2  3  1  0  0  0
  4  5  1  0  0  0
  5  6  1  0  0  0
  6  7  1  0  0  0
  7  9  2  0  0  0
  7  8  1  0  0  0
  9 10  1  0  0  0
 10 11  1  0  0  0
 11 12  1  0  0  0
 12 15  1  0  0  0
 12 14  1  0  0  0
 12 13  2  0  0  0
 15 16  1  0  0  0
 16 19  1  0  0  0
 16 18  1  0  0  0
 16 17  2  0  0  0
M  END
> <SMILES>
CC(C)=CCCC(C)=CCOP(=O)(O)OP(=O)(O)O

> <NAME>
GERANYL-PP

> <BioCyc_link>
http://biocyc.org/HUMAN/NEW-IMAGE?object=GERANYL-PP

> <BioCyc_name_HTML>
geranyl-diphosphate

> <CAS>


> <KEGG_ID>
C00341

> <toxTree.tree.cramer.CramerTreeResult>


> <FORMULA>


> <toxTree.tree.cramer.CramerRules>


$$$$
GERANYLGERANYL-PP
 OpenBabel30120812303D

 29 28  0  0  0  0  0  0  0  0999 V2000
    1.0000    0.0000    0.0000 C   0  0  0  0  0
    2.5000    0.0000    0.0000 C   0  0  0  0  0
    3.2500   -1.2990    0.0000 C   0  0  0  0  0
    3.2500    1.2990    0.0000 C   0  0  0  0  0
    4.7500    1.2990    0.0000 C   0  0  0  0  0
    5.2507    2.7130    0.0000 C   0  0  0  0  0
    6.7507    2.7130    0.0000 C   0  0  0  0  0
    7.5007    1.4140    0.0000 C   0  0  0  0  0
    7.5007    4.0120    0.0000 C   0  0  0  0  0
    9.0007    4.0120    0.0000 C   0  0  0  0  0
    9.5014    5.4260    0.0000 C   0  0  0  0  0
   11.0014    5.4260    0.0000 C   0  0  0  0  0
   11.7514    4.1270    0.0000 C   0  0  0  0  0
   11.7514    6.7250    0.0000 C   0  0  0  0  0
   13.2514    6.7250    0.0000 C   0  0  0  0  0
   13.7521    8.1390    0.0000 C   0  0  0  0  0
   15.2521    8.1390    0.0000 C   0  0  0  0  0
   16.0021    6.8400    0.0000 C   0  0  0  0  0
   16.0021    9.4380    0.0000 C   0  0  0  0  0
   17.5021    9.4380    0.0000 C   0  0  0  0  0
   18.0028   10.8520    0.0000 O   0  0  0  0  0
   19.5028   10.8520    0.0000 P   0  0  0  0  0
   19.9959   10.1543    1.2329 O   0  0  0  0  0
   20.0222   10.1172   -1.2002 O   0  0  0  0  0
   20.0036   12.2660    0.0000 O   0  0  0  0  0
   21.5036   12.2660    0.0000 P   0  0  0  0  0
   21.9966   11.5683    1.2329 O   0  0  0  0  0
   22.0229   11.5312   -1.2002 O   0  0  0  0  0
   22.0043   13.6799    0.0000 O   0  0  0  0  0
  1  2  1  0  0  0
  2  4  2  0  0  0
  2  3  1  0  0  0
  4  5  1  0  0  0
  5  6  1  0  0  0
  6  7  1  0  0  0
  7  9  2  0  0  0
  7  8  1  0  0  0
  9 10  1  0  0  0
 10 11  1  0  0  0
 11 12  1  0  0  0
 12 14  2  0  0  0
 12 13  1  0  0  0
 14 15  1  0  0  0
 15 16  1  0  0  0
 16 17  1  0  0  0
 17 19  2  0  0  0
 17 18  1  0  0  0
 19 20  1  0  0  0
 20 21  1  0  0  0
 21 22  1  0  0  0
 22 25  1  0  0  0
 22 24  1  0  0  0
 22 23  2  0  0  0
 25 26  1  0  0  0
 26 29  1  0  0  0
 26 28  1  0  0  0
 26 27  2  0  0  0
M  END
> <SMILES>
CC(C)=CCCC(C)=CCCC(C)=CCCC(C)=CCOP(=O)(O)OP(=O)(O)O

> <NAME>
GERANYLGERANYL-PP

> <BioCyc_link>
http://biocyc.org/HUMAN/NEW-IMAGE?object=GERANYLGERANYL-PP

> <BioCyc_name_HTML>
all-<i>trans</i>-geranyl-geranyl

> <CAS>


> <KEGG_ID>
C00353

> <toxTree.tree.cramer.CramerTreeResult>


> <FORMULA>


> <toxTree.tree.cramer.CramerRules>


$$$$
OLEOYL-COA
 OpenBabel30120812303D

 71 73  0  0  0  0  0  0  0  0999 V2000
    1.0000    0.0000    0.0000 H   0  0  0  0  0
    2.5000    0.0000    0.0000 C   0  0  0  0  0
    2.9034    0.1217   -1.4396 C   0  0  0  0  0
    4.3999    0.1302   -1.5413 O   0  0  0  0  0
    4.8033    0.2519   -2.9809 P   0  0  0  0  0
    4.2639   -0.9208   -3.7449 O   0  0  0  0  0
    4.2352    1.5066   -3.5751 O   0  0  0  0  0
    6.2998    0.2605   -3.0825 O   0  0  0  0  0
    6.7032    0.3821   -4.5222 P   0  0  0  0  0
    6.1638   -0.7906   -5.2862 O   0  0  0  0  0
    6.1351    1.6368   -5.1164 O   0  0  0  0  0
    8.1997    0.3907   -4.6238 O   0  0  0  0  0
    8.6031    0.5124   -6.0634 C   0  0  0  0  0
   10.0996    0.5210   -6.1651 C   0  0  0  0  0
   10.6390    1.6937   -5.4011 C   0  0  0  0  0
   10.6677   -0.7337   -5.5708 C   0  0  0  0  0
   10.5030    0.6426   -7.6047 C   0  0  0  0  0
    9.9349    1.8973   -8.1989 O   0  0  0  0  0
   11.9995    0.6512   -7.7064 C   0  0  0  0  0
   12.8362    0.5464   -6.4658 O   0  0  0  0  0
   12.6594    0.7647   -9.0486 N   0  0  0  0  0
   14.1560    0.7733   -9.1503 C   0  0  0  0  0
   14.5594    0.8949  -10.5899 C   0  0  0  0  0
   16.0559    0.9035  -10.6915 C   0  0  0  0  0
   16.8925    0.7987   -9.4509 O   0  0  0  0  0
   16.7158    1.0169  -12.0338 N   0  0  0  0  0
   18.2123    1.0255  -12.1355 C   0  0  0  0  0
   18.6157    1.1472  -13.5751 C   0  0  0  0  0
   20.1122    1.1558  -13.6767 S   0  0  0  0  0
   20.5156    1.2774  -15.1163 C   0  0  0  0  0
   19.4661    1.3677  -16.1842 O   0  0  0  0  0
   21.9685    1.3088  -15.4881 C   0  0  0  0  0
   22.1018    1.4346  -16.9768 C   0  0  0  0  0
   23.5547    1.4661  -17.3485 C   0  0  0  0  0
   23.6880    1.5919  -18.8373 C   0  0  0  0  0
   25.1409    1.6233  -19.2090 C   0  0  0  0  0
   25.2743    1.7491  -20.6977 C   0  0  0  0  0
   26.7271    1.7805  -21.0694 C   0  0  0  0  0
   26.8605    1.9063  -22.5582 C   0  0  0  0  0
   28.2210    1.9595  -23.1875 C   0  0  0  0  0
   28.3544    2.0853  -24.6763 C   0  0  0  0  0
   29.8073    2.1167  -25.0480 C   0  0  0  0  0
   29.9406    2.2425  -26.5367 C   0  0  0  0  0
   31.3935    2.2739  -26.9084 C   0  0  0  0  0
   31.5268    2.3997  -28.3972 C   0  0  0  0  0
   32.9797    2.4311  -28.7689 C   0  0  0  0  0
   33.1130    2.5570  -30.2577 C   0  0  0  0  0
   34.5659    2.5884  -30.6294 C   0  0  0  0  0
    3.0599    1.1537    0.8679 O   0  0  0  0  0
    4.4904    0.6582    1.2094 C   0  0  0  0  0
    5.0630    1.3496    2.4111 H   0  0  0  0  0
    5.4454    0.9430    0.0883 N   0  0  0  0  0
    6.1375    0.0329   -0.6155 C   0  0  0  0  0
    6.9010    0.6737   -1.5995 N   0  0  0  0  0
    6.6943    1.9723   -1.5194 C   0  0  0  0  0
    7.1824    3.1454   -2.2447 C   0  0  0  0  0
    8.1503    3.0122   -3.3829 N   0  0  0  0  0
    6.7152    4.3825   -1.8381 N   0  0  0  0  0
    5.8084    4.4812   -0.7884 C   0  0  0  0  0
    5.3597    3.4468   -0.1271 N   0  0  0  0  0
    5.7422    2.1921   -0.4204 C   0  0  0  0  0
    4.3235   -0.8601    1.4286 C   0  0  0  0  0
    4.1957   -1.1812    2.8882 H   0  0  0  0  0
    5.5233   -1.6057    0.9241 O   0  0  0  0  0
    3.0578   -1.2782    0.6595 C   0  0  0  0  0
    2.0467   -1.8906    1.5829 H   0  0  0  0  0
    3.3824   -2.3132   -0.3765 O   0  0  0  0  0
    2.1309   -2.6995   -1.1076 P   0  0  0  0  0
    1.1459   -3.2710   -0.1313 O   0  0  0  0  0
    1.5136   -1.4944   -1.7531 O   0  0  0  0  0
    2.4555   -3.7345   -2.1437 O   0  0  0  0  0
  1  2  1  0  0  0
  2 65  1  0  0  0
  2 49  1  0  0  0
  2  3  1  0  0  0
  3  4  1  0  0  0
  4  5  1  0  0  0
  5  8  1  0  0  0
  5  7  1  0  0  0
  5  6  2  0  0  0
  8  9  1  0  0  0
  9 12  1  0  0  0
  9 11  1  0  0  0
  9 10  2  0  0  0
 12 13  1  0  0  0
 13 14  1  0  0  0
 14 17  1  0  0  0
 14 16  1  0  0  0
 14 15  1  0  0  0
 17 19  1  0  0  0
 17 18  1  0  0  0
 19 21  1  0  0  0
 19 20  2  0  0  0
 21 22  1  0  0  0
 22 23  1  0  0  0
 23 24  1  0  0  0
 24 26  1  0  0  0
 24 25  2  0  0  0
 26 27  1  0  0  0
 27 28  1  0  0  0
 28 29  1  0  0  0
 29 30  1  0  0  0
 30 32  1  0  0  0
 30 31  2  0  0  0
 32 33  1  0  0  0
 33 34  1  0  0  0
 34 35  1  0  0  0
 35 36  1  0  0  0
 36 37  1  0  0  0
 37 38  1  0  0  0
 38 39  1  0  0  0
 39 40  2  0  0  0
 40 41  1  0  0  0
 41 42  1  0  0  0
 42 43  1  0  0  0
 43 44  1  0  0  0
 44 45  1  0  0  0
 45 46  1  0  0  0
 46 47  1  0  0  0
 47 48  1  0  0  0
 49 50  1  0  0  0
 50 62  1  0  0  0
 50 52  1  0  0  0
 50 51  1  0  0  0
 52 61  1  0  0  0
 52 53  1  0  0  0
 53 54  2  0  0  0
 54 55  1  0  0  0
 55 61  2  0  0  0
 55 56  1  0  0  0
 56 58  2  0  0  0
 56 57  1  0  0  0
 58 59  1  0  0  0
 59 60  2  0  0  0
 60 61  1  0  0  0
 62 65  1  0  0  0
 62 64  1  0  0  0
 62 63  1  0  0  0
 65 67  1  0  0  0
 65 66  1  0  0  0
 67 68  1  0  0  0
 68 71  1  0  0  0
 68 70  1  0  0  0
 68 69  2  0  0  0
M  END
> <SMILES>
[H]C3(COP(=O)(O)OP(=O)(O)OCC(C)(C)C(O)C(=O)NCCC(=O)NCCSC(=O)CCCCCCCC=CCCCCCCCC)(OC([H])(N2C=NC=1C(N)=NC=NC=12)C([H])(O)C3([H])(OP(=O)(O)O))

> <NAME>
OLEOYL-COA

> <BioCyc_link>
http://biocyc.org/HUMAN/NEW-IMAGE?object=OLEOYL-COA

> <BioCyc_name_HTML>
oleoyl-CoA

> <CAS>


> <KEGG_ID>
C00510

> <toxTree.tree.cramer.CramerTreeResult>


> <FORMULA>


> <toxTree.tree.cramer.CramerRules>


$$$$
CROTONYL-COA
 OpenBabel30120812303D

 57 59  0  0  0  0  0  0  0  0999 V2000
    1.0000    0.0000    0.0000 H   0  0  0  0  0
    2.5000    0.0000    0.0000 C   0  0  0  0  0
    2.9034    0.1217   -1.4396 C   0  0  0  0  0
    4.3999    0.1302   -1.5413 O   0  0  0  0  0
    4.8033    0.2519   -2.9809 P   0  0  0  0  0
    4.2639   -0.9208   -3.7449 O   0  0  0  0  0
    4.2352    1.5066   -3.5751 O   0  0  0  0  0
    6.2998    0.2605   -3.0825 O   0  0  0  0  0
    6.7032    0.3821   -4.5222 P   0  0  0  0  0
    6.1638   -0.7906   -5.2862 O   0  0  0  0  0
    6.1351    1.6368   -5.1164 O   0  0  0  0  0
    8.1997    0.3907   -4.6238 O   0  0  0  0  0
    8.6031    0.5124   -6.0634 C   0  0  0  0  0
   10.0996    0.5210   -6.1651 C   0  0  0  0  0
   10.6390    1.6937   -5.4011 C   0  0  0  0  0
   10.6677   -0.7337   -5.5708 C   0  0  0  0  0
   10.5030    0.6426   -7.6047 C   0  0  0  0  0
    9.9349    1.8973   -8.1989 O   0  0  0  0  0
   11.9995    0.6512   -7.7064 C   0  0  0  0  0
   12.8362    0.5464   -6.4658 O   0  0  0  0  0
   12.6594    0.7647   -9.0486 N   0  0  0  0  0
   14.1560    0.7733   -9.1503 C   0  0  0  0  0
   14.5594    0.8949  -10.5899 C   0  0  0  0  0
   16.0559    0.9035  -10.6915 C   0  0  0  0  0
   16.8925    0.7987   -9.4509 O   0  0  0  0  0
   16.7158    1.0169  -12.0338 N   0  0  0  0  0
   18.2123    1.0255  -12.1355 C   0  0  0  0  0
   18.6157    1.1472  -13.5751 C   0  0  0  0  0
   20.1122    1.1558  -13.6767 S   0  0  0  0  0
   20.5156    1.2774  -15.1163 C   0  0  0  0  0
   19.4661    1.3677  -16.1842 O   0  0  0  0  0
   21.9685    1.3088  -15.4881 C   0  0  0  0  0
   22.3719    1.4305  -16.9277 C   0  0  0  0  0
   23.8247    1.4619  -17.2994 C   0  0  0  0  0
    3.0599    1.1537    0.8679 O   0  0  0  0  0
    4.4904    0.6582    1.2094 C   0  0  0  0  0
    5.0630    1.3496    2.4111 H   0  0  0  0  0
    5.4454    0.9430    0.0883 N   0  0  0  0  0
    6.1375    0.0329   -0.6155 C   0  0  0  0  0
    6.9010    0.6737   -1.5995 N   0  0  0  0  0
    6.6943    1.9723   -1.5194 C   0  0  0  0  0
    7.1824    3.1454   -2.2447 C   0  0  0  0  0
    8.1503    3.0122   -3.3829 N   0  0  0  0  0
    6.7152    4.3825   -1.8381 N   0  0  0  0  0
    5.8084    4.4812   -0.7884 C   0  0  0  0  0
    5.3597    3.4468   -0.1271 N   0  0  0  0  0
    5.7422    2.1921   -0.4204 C   0  0  0  0  0
    4.3235   -0.8601    1.4286 C   0  0  0  0  0
    4.1957   -1.1812    2.8882 H   0  0  0  0  0
    5.5233   -1.6057    0.9241 O   0  0  0  0  0
    3.0578   -1.2782    0.6595 C   0  0  0  0  0
    2.0467   -1.8906    1.5829 H   0  0  0  0  0
    3.3824   -2.3132   -0.3765 O   0  0  0  0  0
    2.1309   -2.6995   -1.1076 P   0  0  0  0  0
    1.1459   -3.2710   -0.1313 O   0  0  0  0  0
    1.5136   -1.4944   -1.7531 O   0  0  0  0  0
    2.4555   -3.7345   -2.1437 O   0  0  0  0  0
  1  2  1  0  0  0
  2 51  1  0  0  0
  2 35  1  0  0  0
  2  3  1  0  0  0
  3  4  1  0  0  0
  4  5  1  0  0  0
  5  8  1  0  0  0
  5  7  1  0  0  0
  5  6  2  0  0  0
  8  9  1  0  0  0
  9 12  1  0  0  0
  9 11  1  0  0  0
  9 10  2  0  0  0
 12 13  1  0  0  0
 13 14  1  0  0  0
 14 17  1  0  0  0
 14 16  1  0  0  0
 14 15  1  0  0  0
 17 19  1  0  0  0
 17 18  1  0  0  0
 19 21  1  0  0  0
 19 20  2  0  0  0
 21 22  1  0  0  0
 22 23  1  0  0  0
 23 24  1  0  0  0
 24 26  1  0  0  0
 24 25  2  0  0  0
 26 27  1  0  0  0
 27 28  1  0  0  0
 28 29  1  0  0  0
 29 30  1  0  0  0
 30 32  1  0  0  0
 30 31  2  0  0  0
 32 33  2  0  0  0
 33 34  1  0  0  0
 35 36  1  0  0  0
 36 48  1  0  0  0
 36 38  1  0  0  0
 36 37  1  0  0  0
 38 47  1  0  0  0
 38 39  1  0  0  0
 39 40  2  0  0  0
 40 41  1  0  0  0
 41 47  2  0  0  0
 41 42  1  0  0  0
 42 44  2  0  0  0
 42 43  1  0  0  0
 44 45  1  0  0  0
 45 46  2  0  0  0
 46 47  1  0  0  0
 48 51  1  0  0  0
 48 50  1  0  0  0
 48 49  1  0  0  0
 51 53  1  0  0  0
 51 52  1  0  0  0
 53 54  1  0  0  0
 54 57  1  0  0  0
 54 56  1  0  0  0
 54 55  2  0  0  0
M  END
> <SMILES>
[H]C3(COP(=O)(O)OP(=O)(O)OCC(C)(C)C(O)C(=O)NCCC(=O)NCCSC(=O)C=CC)(OC([H])(N2C=NC=1C(N)=NC=NC=12)C([H])(O)C3([H])(OP(=O)(O)O))

> <NAME>
CROTONYL-COA

> <BioCyc_link>
http://biocyc.org/HUMAN/NEW-IMAGE?object=CROTONYL-COA

> <BioCyc_name_HTML>
crotonyl-CoA

> <CAS>
102680-35-3

> <KEGG_ID>
C00877

> <toxTree.tree.cramer.CramerTreeResult>


> <FORMULA>


> <toxTree.tree.cramer.CramerRules>


$$$$
ALL-TRANS-HEXAPRENYL-DIPHOSPHATE
 OpenBabel30120812303D

 39 38  0  0  0  0  0  0  0  0999 V2000
    1.0000    0.0000    0.0000 C   0  0  0  0  0
    2.5000    0.0000    0.0000 C   0  0  0  0  0
    3.2500   -1.2990    0.0000 C   0  0  0  0  0
    3.2500    1.2990    0.0000 C   0  0  0  0  0
    4.7500    1.2990    0.0000 C   0  0  0  0  0
    5.2507    2.7130    0.0000 C   0  0  0  0  0
    6.7507    2.7130    0.0000 C   0  0  0  0  0
    7.5007    1.4140    0.0000 C   0  0  0  0  0
    7.5007    4.0120    0.0000 C   0  0  0  0  0
    9.0007    4.0120    0.0000 C   0  0  0  0  0
    9.5014    5.4260    0.0000 C   0  0  0  0  0
   11.0014    5.4260    0.0000 C   0  0  0  0  0
   11.7514    4.1270    0.0000 C   0  0  0  0  0
   11.7514    6.7250    0.0000 C   0  0  0  0  0
   13.2514    6.7250    0.0000 C   0  0  0  0  0
   13.7521    8.1390    0.0000 C   0  0  0  0  0
   15.2521    8.1390    0.0000 C   0  0  0  0  0
   16.0021    6.8400    0.0000 C   0  0  0  0  0
   16.0021    9.4380    0.0000 C   0  0  0  0  0
   17.5021    9.4380    0.0000 C   0  0  0  0  0
   18.0028   10.8520    0.0000 C   0  0  0  0  0
   19.5028   10.8520    0.0000 C   0  0  0  0  0
   20.2528    9.5530    0.0000 C   0  0  0  0  0
   20.2528   12.1510    0.0000 C   0  0  0  0  0
   21.7528   12.1510    0.0000 C   0  0  0  0  0
   22.2536   13.5650    0.0000 C   0  0  0  0  0
   23.7536   13.5650    0.0000 C   0  0  0  0  0
   24.5036   12.2660    0.0000 C   0  0  0  0  0
   24.5036   14.8640    0.0000 C   0  0  0  0  0
   26.0036   14.8640    0.0000 C   0  0  0  0  0
   26.5043   16.2780    0.0000 O   0  0  0  0  0
   28.0043   16.2780    0.0000 P   0  0  0  0  0
   28.4973   15.5803    1.2329 O   0  0  0  0  0
   28.5236   15.5432   -1.2002 O   0  0  0  0  0
   28.5050   17.6920    0.0000 O   0  0  0  0  0
   30.0050   17.6920    0.0000 P   0  0  0  0  0
   30.4981   16.9943    1.2329 O   0  0  0  0  0
   30.5243   16.9572   -1.2002 O   0  0  0  0  0
   30.5057   19.1059    0.0000 O   0  0  0  0  0
  1  2  1  0  0  0
  2  4  2  0  0  0
  2  3  1  0  0  0
  4  5  1  0  0  0
  5  6  1  0  0  0
  6  7  1  0  0  0
  7  9  2  0  0  0
  7  8  1  0  0  0
  9 10  1  0  0  0
 10 11  1  0  0  0
 11 12  1  0  0  0
 12 14  2  0  0  0
 12 13  1  0  0  0
 14 15  1  0  0  0
 15 16  1  0  0  0
 16 17  1  0  0  0
 17 19  2  0  0  0
 17 18  1  0  0  0
 19 20  1  0  0  0
 20 21  1  0  0  0
 21 22  1  0  0  0
 22 24  2  0  0  0
 22 23  1  0  0  0
 24 25  1  0  0  0
 25 26  1  0  0  0
 26 27  1  0  0  0
 27 29  2  0  0  0
 27 28  1  0  0  0
 29 30  1  0  0  0
 30 31  1  0  0  0
 31 32  1  0  0  0
 32 35  1  0  0  0
 32 34  1  0  0  0
 32 33  2  0  0  0
 35 36  1  0  0  0
 36 39  1  0  0  0
 36 38  1  0  0  0
 36 37  2  0  0  0
M  END
> <SMILES>
CC(C)=CCCC(C)=CCCC(C)=CCCC(C)=CCCC(C)=CCCC(C)=CCOP(=O)(O)OP(=O)(O)O

> <NAME>
ALL-TRANS-HEXAPRENYL-DIPHOSPHATE

> <BioCyc_link>
http://biocyc.org/HUMAN/NEW-IMAGE?object=ALL-TRANS-HEXAPRENYL-DIPHOSPHATE

> <BioCyc_name_HTML>
all-<i>trans</i>-hexaprenyl

> <CAS>


> <KEGG_ID>
C01230

> <toxTree.tree.cramer.CramerTreeResult>


> <FORMULA>


> <toxTree.tree.cramer.CramerRules>


$$$$
CPD-18
 OpenBabel30120812303D

 71 73  0  0  0  0  0  0  0  0999 V2000
    1.0000    0.0000    0.0000 H   0  0  0  0  0
    2.5000    0.0000    0.0000 C   0  0  0  0  0
    2.9034    0.1217   -1.4396 C   0  0  0  0  0
    4.3999    0.1302   -1.5413 O   0  0  0  0  0
    4.8033    0.2519   -2.9809 P   0  0  0  0  0
    4.2639   -0.9208   -3.7449 O   0  0  0  0  0
    4.2352    1.5066   -3.5751 O   0  0  0  0  0
    6.2998    0.2605   -3.0825 O   0  0  0  0  0
    6.7032    0.3821   -4.5222 P   0  0  0  0  0
    6.1638   -0.7906   -5.2862 O   0  0  0  0  0
    6.1351    1.6368   -5.1164 O   0  0  0  0  0
    8.1997    0.3907   -4.6238 O   0  0  0  0  0
    8.6031    0.5124   -6.0634 C   0  0  0  0  0
   10.0996    0.5210   -6.1651 C   0  0  0  0  0
   10.6390    1.6937   -5.4011 C   0  0  0  0  0
   10.6677   -0.7337   -5.5708 C   0  0  0  0  0
   10.5030    0.6426   -7.6047 C   0  0  0  0  0
    9.9349    1.8973   -8.1989 O   0  0  0  0  0
   11.9995    0.6512   -7.7064 C   0  0  0  0  0
   12.8362    0.5464   -6.4658 O   0  0  0  0  0
   12.6594    0.7647   -9.0486 N   0  0  0  0  0
   14.1560    0.7733   -9.1503 C   0  0  0  0  0
   14.5594    0.8949  -10.5899 C   0  0  0  0  0
   16.0559    0.9035  -10.6915 C   0  0  0  0  0
   16.8925    0.7987   -9.4509 O   0  0  0  0  0
   16.7158    1.0169  -12.0338 N   0  0  0  0  0
   18.2123    1.0255  -12.1355 C   0  0  0  0  0
   18.6157    1.1472  -13.5751 C   0  0  0  0  0
   20.1122    1.1558  -13.6767 S   0  0  0  0  0
   20.5156    1.2774  -15.1163 C   0  0  0  0  0
   19.4661    1.3677  -16.1842 O   0  0  0  0  0
   21.9685    1.3088  -15.4881 C   0  0  0  0  0
   22.1018    1.4346  -16.9768 C   0  0  0  0  0
   23.5547    1.4661  -17.3485 C   0  0  0  0  0
   23.6880    1.5919  -18.8373 C   0  0  0  0  0
   25.1409    1.6233  -19.2090 C   0  0  0  0  0
   25.2743    1.7491  -20.6977 C   0  0  0  0  0
   26.7271    1.7805  -21.0694 C   0  0  0  0  0
   26.8605    1.9063  -22.5582 C   0  0  0  0  0
   28.2210    1.9595  -23.1875 C   0  0  0  0  0
   28.3544    2.0853  -24.6763 C   0  0  0  0  0
   29.8073    2.1167  -25.0480 C   0  0  0  0  0
   30.2106    2.2384  -26.4876 C   0  0  0  0  0
   31.6635    2.2698  -26.8593 C   0  0  0  0  0
   31.7969    2.3956  -28.3480 C   0  0  0  0  0
   33.2497    2.4270  -28.7198 C   0  0  0  0  0
   33.3831    2.5528  -30.2085 C   0  0  0  0  0
   34.8360    2.5842  -30.5802 C   0  0  0  0  0
    3.0599    1.1537    0.8679 O   0  0  0  0  0
    4.4904    0.6582    1.2094 C   0  0  0  0  0
    5.0630    1.3496    2.4111 H   0  0  0  0  0
    5.4454    0.9430    0.0883 N   0  0  0  0  0
    6.1375    0.0329   -0.6155 C   0  0  0  0  0
    6.9010    0.6737   -1.5995 N   0  0  0  0  0
    6.6943    1.9723   -1.5194 C   0  0  0  0  0
    7.1824    3.1454   -2.2447 C   0  0  0  0  0
    8.1503    3.0122   -3.3829 N   0  0  0  0  0
    6.7152    4.3825   -1.8381 N   0  0  0  0  0
    5.8084    4.4812   -0.7884 C   0  0  0  0  0
    5.3597    3.4468   -0.1271 N   0  0  0  0  0
    5.7422    2.1921   -0.4204 C   0  0  0  0  0
    4.3235   -0.8601    1.4286 C   0  0  0  0  0
    4.1957   -1.1812    2.8882 H   0  0  0  0  0
    5.5233   -1.6057    0.9241 O   0  0  0  0  0
    3.0578   -1.2782    0.6595 C   0  0  0  0  0
    2.0467   -1.8906    1.5829 H   0  0  0  0  0
    3.3824   -2.3132   -0.3765 O   0  0  0  0  0
    2.1309   -2.6995   -1.1076 P   0  0  0  0  0
    1.1459   -3.2710   -0.1313 O   0  0  0  0  0
    1.5136   -1.4944   -1.7531 O   0  0  0  0  0
    2.4555   -3.7345   -2.1437 O   0  0  0  0  0
  1  2  1  0  0  0
  2 65  1  0  0  0
  2 49  1  0  0  0
  2  3  1  0  0  0
  3  4  1  0  0  0
  4  5  1  0  0  0
  5  8  1  0  0  0
  5  7  1  0  0  0
  5  6  2  0  0  0
  8  9  1  0  0  0
  9 12  1  0  0  0
  9 11  1  0  0  0
  9 10  2  0  0  0
 12 13  1  0  0  0
 13 14  1  0  0  0
 14 17  1  0  0  0
 14 16  1  0  0  0
 14 15  1  0  0  0
 17 19  1  0  0  0
 17 18  1  0  0  0
 19 21  1  0  0  0
 19 20  2  0  0  0
 21 22  1  0  0  0
 22 23  1  0  0  0
 23 24  1  0  0  0
 24 26  1  0  0  0
 24 25  2  0  0  0
 26 27  1  0  0  0
 27 28  1  0  0  0
 28 29  1  0  0  0
 29 30  1  0  0  0
 30 32  1  0  0  0
 30 31  2  0  0  0
 32 33  1  0  0  0
 33 34  1  0  0  0
 34 35  1  0  0  0
 35 36  1  0  0  0
 36 37  1  0  0  0
 37 38  1  0  0  0
 38 39  1  0  0  0
 39 40  2  0  0  0
 40 41  1  0  0  0
 41 42  1  0  0  0
 42 43  2  0  0  0
 43 44  1  0  0  0
 44 45  1  0  0  0
 45 46  1  0  0  0
 46 47  1  0  0  0
 47 48  1  0  0  0
 49 50  1  0  0  0
 50 62  1  0  0  0
 50 52  1  0  0  0
 50 51  1  0  0  0
 52 61  1  0  0  0
 52 53  1  0  0  0
 53 54  2  0  0  0
 54 55  1  0  0  0
 55 61  2  0  0  0
 55 56  1  0  0  0
 56 58  2  0  0  0
 56 57  1  0  0  0
 58 59  1  0  0  0
 59 60  2  0  0  0
 60 61  1  0  0  0
 62 65  1  0  0  0
 62 64  1  0  0  0
 62 63  1  0  0  0
 65 67  1  0  0  0
 65 66  1  0  0  0
 67 68  1  0  0  0
 68 71  1  0  0  0
 68 70  1  0  0  0
 68 69  2  0  0  0
M  END
> <SMILES>
[H]C3(COP(=O)(O)OP(=O)(O)OCC(C)(C)C(O)C(=O)NCCC(=O)NCCSC(=O)CCCCCCCC=CCC=CCCCCC)(OC([H])(N2C=NC=1C(N)=NC=NC=12)C([H])(O)C3([H])(OP(=O)(O)O))

> <NAME>
CPD-18

> <BioCyc_link>
http://biocyc.org/HUMAN/NEW-IMAGE?object=CPD-18

> <BioCyc_name_HTML>
linoleoyl-CoA

> <CAS>


> <KEGG_ID>
C02050

> <toxTree.tree.cramer.CramerTreeResult>


> <FORMULA>


> <toxTree.tree.cramer.CramerRules>


$$$$
GAMMA-LINOLENOYL-COA
 OpenBabel30120812303D

 71 73  0  0  0  0  0  0  0  0999 V2000
    1.0000    0.0000    0.0000 H   0  0  0  0  0
    2.5000    0.0000    0.0000 C   0  0  0  0  0
    2.9034    0.1217   -1.4396 C   0  0  0  0  0
    4.3999    0.1302   -1.5413 O   0  0  0  0  0
    4.8033    0.2519   -2.9809 P   0  0  0  0  0
    4.2639   -0.9208   -3.7449 O   0  0  0  0  0
    4.2352    1.5066   -3.5751 O   0  0  0  0  0
    6.2998    0.2605   -3.0825 O   0  0  0  0  0
    6.7032    0.3821   -4.5222 P   0  0  0  0  0
    6.1638   -0.7906   -5.2862 O   0  0  0  0  0
    6.1351    1.6368   -5.1164 O   0  0  0  0  0
    8.1997    0.3907   -4.6238 O   0  0  0  0  0
    8.6031    0.5124   -6.0634 C   0  0  0  0  0
   10.0996    0.5210   -6.1651 C   0  0  0  0  0
   10.6390    1.6937   -5.4011 C   0  0  0  0  0
   10.6677   -0.7337   -5.5708 C   0  0  0  0  0
   10.5030    0.6426   -7.6047 C   0  0  0  0  0
    9.9349    1.8973   -8.1989 O   0  0  0  0  0
   11.9995    0.6512   -7.7064 C   0  0  0  0  0
   12.8362    0.5464   -6.4658 O   0  0  0  0  0
   12.6594    0.7647   -9.0486 N   0  0  0  0  0
   14.1560    0.7733   -9.1503 C   0  0  0  0  0
   14.5594    0.8949  -10.5899 C   0  0  0  0  0
   16.0559    0.9035  -10.6915 C   0  0  0  0  0
   16.8925    0.7987   -9.4509 O   0  0  0  0  0
   16.7158    1.0169  -12.0338 N   0  0  0  0  0
   18.2123    1.0255  -12.1355 C   0  0  0  0  0
   18.6157    1.1472  -13.5751 C   0  0  0  0  0
   20.1122    1.1558  -13.6767 S   0  0  0  0  0
   20.5156    1.2774  -15.1163 C   0  0  0  0  0
   19.4661    1.3677  -16.1842 O   0  0  0  0  0
   21.9685    1.3088  -15.4881 C   0  0  0  0  0
   22.1018    1.4346  -16.9768 C   0  0  0  0  0
   23.5547    1.4661  -17.3485 C   0  0  0  0  0
   23.6880    1.5919  -18.8373 C   0  0  0  0  0
   25.1409    1.6233  -19.2090 C   0  0  0  0  0
   25.5443    1.7449  -20.6486 C   0  0  0  0  0
   26.9972    1.7763  -21.0203 C   0  0  0  0  0
   27.1305    1.9021  -22.5091 C   0  0  0  0  0
   28.4911    1.9553  -23.1384 C   0  0  0  0  0
   28.6244    2.0811  -24.6271 C   0  0  0  0  0
   30.0773    2.1126  -24.9988 C   0  0  0  0  0
   30.4807    2.2342  -26.4384 C   0  0  0  0  0
   31.9336    2.2656  -26.8102 C   0  0  0  0  0
   32.0669    2.3914  -28.2989 C   0  0  0  0  0
   33.5198    2.4228  -28.6706 C   0  0  0  0  0
   33.6531    2.5486  -30.1594 C   0  0  0  0  0
   35.1060    2.5801  -30.5311 C   0  0  0  0  0
    3.0599    1.1537    0.8679 O   0  0  0  0  0
    4.4904    0.6582    1.2094 C   0  0  0  0  0
    5.0630    1.3496    2.4111 H   0  0  0  0  0
    5.4454    0.9430    0.0883 N   0  0  0  0  0
    6.1375    0.0329   -0.6155 C   0  0  0  0  0
    6.9010    0.6737   -1.5995 N   0  0  0  0  0
    6.6943    1.9723   -1.5194 C   0  0  0  0  0
    7.1824    3.1454   -2.2447 C   0  0  0  0  0
    8.1503    3.0122   -3.3829 N   0  0  0  0  0
    6.7152    4.3825   -1.8381 N   0  0  0  0  0
    5.8084    4.4812   -0.7884 C   0  0  0  0  0
    5.3597    3.4468   -0.1271 N   0  0  0  0  0
    5.7422    2.1921   -0.4204 C   0  0  0  0  0
    4.3235   -0.8601    1.4286 C   0  0  0  0  0
    4.1957   -1.1812    2.8882 H   0  0  0  0  0
    5.5233   -1.6057    0.9241 O   0  0  0  0  0
    3.0578   -1.2782    0.6595 C   0  0  0  0  0
    2.0467   -1.8906    1.5829 H   0  0  0  0  0
    3.3824   -2.3132   -0.3765 O   0  0  0  0  0
    2.1309   -2.6995   -1.1076 P   0  0  0  0  0
    1.1459   -3.2710   -0.1313 O   0  0  0  0  0
    1.5136   -1.4944   -1.7531 O   0  0  0  0  0
    2.4555   -3.7345   -2.1437 O   0  0  0  0  0
  1  2  1  0  0  0
  2 65  1  0  0  0
  2 49  1  0  0  0
  2  3  1  0  0  0
  3  4  1  0  0  0
  4  5  1  0  0  0
  5  8  1  0  0  0
  5  7  1  0  0  0
  5  6  2  0  0  0
  8  9  1  0  0  0
  9 12  1  0  0  0
  9 11  1  0  0  0
  9 10  2  0  0  0
 12 13  1  0  0  0
 13 14  1  0  0  0
 14 17  1  0  0  0
 14 16  1  0  0  0
 14 15  1  0  0  0
 17 19  1  0  0  0
 17 18  1  0  0  0
 19 21  1  0  0  0
 19 20  2  0  0  0
 21 22  1  0  0  0
 22 23  1  0  0  0
 23 24  1  0  0  0
 24 26  1  0  0  0
 24 25  2  0  0  0
 26 27  1  0  0  0
 27 28  1  0  0  0
 28 29  1  0  0  0
 29 30  1  0  0  0
 30 32  1  0  0  0
 30 31  2  0  0  0
 32 33  1  0  0  0
 33 34  1  0  0  0
 34 35  1  0  0  0
 35 36  1  0  0  0
 36 37  2  0  0  0
 37 38  1  0  0  0
 38 39  1  0  0  0
 39 40  2  0  0  0
 40 41  1  0  0  0
 41 42  1  0  0  0
 42 43  2  0  0  0
 43 44  1  0  0  0
 44 45  1  0  0  0
 45 46  1  0  0  0
 46 47  1  0  0  0
 47 48  1  0  0  0
 49 50  1  0  0  0
 50 62  1  0  0  0
 50 52  1  0  0  0
 50 51  1  0  0  0
 52 61  1  0  0  0
 52 53  1  0  0  0
 53 54  2  0  0  0
 54 55  1  0  0  0
 55 61  2  0  0  0
 55 56  1  0  0  0
 56 58  2  0  0  0
 56 57  1  0  0  0
 58 59  1  0  0  0
 59 60  2  0  0  0
 60 61  1  0  0  0
 62 65  1  0  0  0
 62 64  1  0  0  0
 62 63  1  0  0  0
 65 67  1  0  0  0
 65 66  1  0  0  0
 67 68  1  0  0  0
 68 71  1  0  0  0
 68 70  1  0  0  0
 68 69  2  0  0  0
M  END
> <SMILES>
[H]C3(COP(=O)(O)OP(=O)(O)OCC(C)(C)C(O)C(=O)NCCC(=O)NCCSC(=O)CCCCC=CCC=CCC=CCCCCC)(OC([H])(N2C=NC=1C(N)=NC=NC=12)C([H])(O)C3([H])(OP(=O)(O)O))

> <NAME>
GAMMA-LINOLENOYL-COA

> <BioCyc_link>
http://biocyc.org/HUMAN/NEW-IMAGE?object=GAMMA-LINOLENOYL-COA

> <BioCyc_name_HTML>
&gamma;-linolenoyl-CoA

> <CAS>


> <KEGG_ID>
C03035

> <toxTree.tree.cramer.CramerTreeResult>


> <FORMULA>


> <toxTree.tree.cramer.CramerRules>


$$$$
T2-DECENOYL-COA
 OpenBabel30120812303D

 63 65  0  0  0  0  0  0  0  0999 V2000
    1.0000    0.0000    0.0000 H   0  0  0  0  0
    2.5000    0.0000    0.0000 C   0  0  0  0  0
    2.9034    0.1217   -1.4396 C   0  0  0  0  0
    4.3999    0.1302   -1.5413 O   0  0  0  0  0
    4.8033    0.2519   -2.9809 P   0  0  0  0  0
    4.2639   -0.9208   -3.7449 O   0  0  0  0  0
    4.2352    1.5066   -3.5751 O   0  0  0  0  0
    6.2998    0.2605   -3.0825 O   0  0  0  0  0
    6.7032    0.3821   -4.5222 P   0  0  0  0  0
    6.1638   -0.7906   -5.2862 O   0  0  0  0  0
    6.1351    1.6368   -5.1164 O   0  0  0  0  0
    8.1997    0.3907   -4.6238 O   0  0  0  0  0
    8.6031    0.5124   -6.0634 C   0  0  0  0  0
   10.0996    0.5210   -6.1651 C   0  0  0  0  0
   10.6390    1.6937   -5.4011 C   0  0  0  0  0
   10.6677   -0.7337   -5.5708 C   0  0  0  0  0
   10.5030    0.6426   -7.6047 C   0  0  0  0  0
    9.9349    1.8973   -8.1989 O   0  0  0  0  0
   11.9995    0.6512   -7.7064 C   0  0  0  0  0
   12.8362    0.5464   -6.4658 O   0  0  0  0  0
   12.6594    0.7647   -9.0486 N   0  0  0  0  0
   14.1560    0.7733   -9.1503 C   0  0  0  0  0
   14.5594    0.8949  -10.5899 C   0  0  0  0  0
   16.0559    0.9035  -10.6915 C   0  0  0  0  0
   16.8925    0.7987   -9.4509 O   0  0  0  0  0
   16.7158    1.0169  -12.0338 N   0  0  0  0  0
   18.2123    1.0255  -12.1355 C   0  0  0  0  0
   18.6157    1.1472  -13.5751 C   0  0  0  0  0
   20.1122    1.1558  -13.6767 S   0  0  0  0  0
   20.5156    1.2774  -15.1163 C   0  0  0  0  0
   19.4661    1.3677  -16.1842 O   0  0  0  0  0
   21.9685    1.3088  -15.4881 C   0  0  0  0  0
   22.3719    1.4305  -16.9277 C   0  0  0  0  0
   23.8247    1.4619  -17.2994 C   0  0  0  0  0
   23.9581    1.5877  -18.7881 C   0  0  0  0  0
   25.4110    1.6191  -19.1598 C   0  0  0  0  0
   25.5443    1.7449  -20.6486 C   0  0  0  0  0
   26.9972    1.7763  -21.0203 C   0  0  0  0  0
   27.1305    1.9021  -22.5091 C   0  0  0  0  0
   28.5834    1.9336  -22.8808 C   0  0  0  0  0
    3.0599    1.1537    0.8679 O   0  0  0  0  0
    4.4904    0.6582    1.2094 C   0  0  0  0  0
    5.0630    1.3496    2.4111 H   0  0  0  0  0
    5.4454    0.9430    0.0883 N   0  0  0  0  0
    6.1375    0.0329   -0.6155 C   0  0  0  0  0
    6.9010    0.6737   -1.5995 N   0  0  0  0  0
    6.6943    1.9723   -1.5194 C   0  0  0  0  0
    7.1824    3.1454   -2.2447 C   0  0  0  0  0
    8.1503    3.0122   -3.3829 N   0  0  0  0  0
    6.7152    4.3825   -1.8381 N   0  0  0  0  0
    5.8084    4.4812   -0.7884 C   0  0  0  0  0
    5.3597    3.4468   -0.1271 N   0  0  0  0  0
    5.7422    2.1921   -0.4204 C   0  0  0  0  0
    4.3235   -0.8601    1.4286 C   0  0  0  0  0
    4.1957   -1.1812    2.8882 H   0  0  0  0  0
    5.5233   -1.6057    0.9241 O   0  0  0  0  0
    3.0578   -1.2782    0.6595 C   0  0  0  0  0
    2.0467   -1.8906    1.5829 H   0  0  0  0  0
    3.3824   -2.3132   -0.3765 O   0  0  0  0  0
    2.1309   -2.6995   -1.1076 P   0  0  0  0  0
    1.1459   -3.2710   -0.1313 O   0  0  0  0  0
    1.5136   -1.4944   -1.7531 O   0  0  0  0  0
    2.4555   -3.7345   -2.1437 O   0  0  0  0  0
  1  2  1  0  0  0
  2 57  1  0  0  0
  2 41  1  0  0  0
  2  3  1  0  0  0
  3  4  1  0  0  0
  4  5  1  0  0  0
  5  8  1  0  0  0
  5  7  1  0  0  0
  5  6  2  0  0  0
  8  9  1  0  0  0
  9 12  1  0  0  0
  9 11  1  0  0  0
  9 10  2  0  0  0
 12 13  1  0  0  0
 13 14  1  0  0  0
 14 17  1  0  0  0
 14 16  1  0  0  0
 14 15  1  0  0  0
 17 19  1  0  0  0
 17 18  1  0  0  0
 19 21  1  0  0  0
 19 20  2  0  0  0
 21 22  1  0  0  0
 22 23  1  0  0  0
 23 24  1  0  0  0
 24 26  1  0  0  0
 24 25  2  0  0  0
 26 27  1  0  0  0
 27 28  1  0  0  0
 28 29  1  0  0  0
 29 30  1  0  0  0
 30 32  1  0  0  0
 30 31  2  0  0  0
 32 33  2  0  0  0
 33 34  1  0  0  0
 34 35  1  0  0  0
 35 36  1  0  0  0
 36 37  1  0  0  0
 37 38  1  0  0  0
 38 39  1  0  0  0
 39 40  1  0  0  0
 41 42  1  0  0  0
 42 54  1  0  0  0
 42 44  1  0  0  0
 42 43  1  0  0  0
 44 53  1  0  0  0
 44 45  1  0  0  0
 45 46  2  0  0  0
 46 47  1  0  0  0
 47 53  2  0  0  0
 47 48  1  0  0  0
 48 50  2  0  0  0
 48 49  1  0  0  0
 50 51  1  0  0  0
 51 52  2  0  0  0
 52 53  1  0  0  0
 54 57  1  0  0  0
 54 56  1  0  0  0
 54 55  1  0  0  0
 57 59  1  0  0  0
 57 58  1  0  0  0
 59 60  1  0  0  0
 60 63  1  0  0  0
 60 62  1  0  0  0
 60 61  2  0  0  0
M  END
> <SMILES>
[H]C3(COP(=O)(O)OP(=O)(O)OCC(C)(C)C(O)C(=O)NCCC(=O)NCCSC(=O)C=CCCCCCCC)(OC([H])(N2C=NC=1C(N)=NC=NC=12)C([H])(O)C3([H])(OP(=O)(O)O))

> <NAME>
T2-DECENOYL-COA

> <BioCyc_link>
http://biocyc.org/HUMAN/NEW-IMAGE?object=T2-DECENOYL-COA

> <BioCyc_name_HTML>
trans-&Delta;<SUP>2</SUP>-decenoyl-CoA

> <CAS>


> <KEGG_ID>
C05275

> <toxTree.tree.cramer.CramerTreeResult>


> <FORMULA>


> <toxTree.tree.cramer.CramerRules>


$$$$
NADPH
 OpenBabel30120812303D

 56 60  0  0  0  0  0  0  0  0999 V2000
    1.0000    0.0000    0.0000 H   0  0  0  0  0
    2.5000    0.0000    0.0000 C   0  0  0  0  0
    2.9034    0.1217   -1.4396 C   0  0  0  0  0
    4.3999    0.1302   -1.5413 O   0  0  0  0  0
    4.8033    0.2519   -2.9809 P   0  0  0  0  0
    4.2639   -0.9208   -3.7449 O   0  0  0  0  0
    4.2352    1.5066   -3.5751 O   0  0  0  0  0
    6.2998    0.2605   -3.0825 O   0  0  0  0  0
    6.7032    0.3821   -4.5222 P   0  0  0  0  0
    6.1638   -0.7906   -5.2862 O   0  0  0  0  0
    6.1351    1.6368   -5.1164 O   0  0  0  0  0
    8.1997    0.3907   -4.6238 O   0  0  0  0  0
    8.6031    0.5124   -6.0634 C   0  0  0  0  0
   10.0996    0.5210   -6.1651 C   0  0  0  0  0
   10.4039    0.6580   -7.6275 H   0  0  0  0  0
   10.7112    1.6700   -5.3263 O   0  0  0  0  0
   12.1640    1.1796   -5.0871 C   0  0  0  0  0
   12.8132    1.8634   -3.9205 H   0  0  0  0  0
   13.0394    1.4800   -6.2676 N   0  0  0  0  0
   13.6945    0.5819   -7.0205 C   0  0  0  0  0
   14.3768    1.2360   -8.0542 N   0  0  0  0  0
   14.1559    2.5310   -7.9565 C   0  0  0  0  0
   14.5734    3.7127   -8.7113 C   0  0  0  0  0
   15.4609    3.5965   -9.9151 N   0  0  0  0  0
   14.1166    4.9417   -8.2699 N   0  0  0  0  0
   13.2844    5.0247   -7.1588 C   0  0  0  0  0
   12.8995    3.9824   -6.4702 N   0  0  0  0  0
   13.2801    2.7343   -6.7927 C   0  0  0  0  0
   12.0201   -0.3415   -4.8714 C   0  0  0  0  0
   11.9931   -0.6765   -3.4096 H   0  0  0  0  0
   13.1867   -1.0756   -5.4630 O   0  0  0  0  0
   13.0178   -2.5489   -5.2374 P   0  0  0  0  0
   12.9616   -2.8188   -3.7630 O   0  0  0  0  0
   11.7368   -3.0254   -5.8557 O   0  0  0  0  0
   14.1845   -3.2831   -5.8290 O   0  0  0  0  0
   10.7073   -0.7599   -5.5569 C   0  0  0  0  0
    9.7642   -1.3864   -4.5730 H   0  0  0  0  0
   10.9662   -1.7836   -6.6222 O   0  0  0  0  0
    3.0599    1.1537    0.8679 O   0  0  0  0  0
    4.4904    0.6582    1.2094 C   0  0  0  0  0
    5.0630    1.3496    2.4111 H   0  0  0  0  0
    5.4454    0.9430    0.0883 N   0  0  0  0  0
    5.5918    2.2432   -0.3762 C   0  0  0  0  0
    6.6273    2.5864   -1.1092 C   0  0  0  0  0
    7.6966    1.6001   -1.4806 C   0  0  0  0  0
    7.2326    0.1917   -1.2484 C   0  0  0  0  0
    6.1521   -0.0737   -0.4891 C   0  0  0  0  0
    7.9874   -0.9433   -1.8746 C   0  0  0  0  0
    9.1927   -0.6649   -2.7229 N   0  0  0  0  0
    7.5368   -2.3567   -1.6525 O   0  0  0  0  0
    4.3235   -0.8601    1.4286 C   0  0  0  0  0
    4.1957   -1.1812    2.8882 H   0  0  0  0  0
    5.5233   -1.6057    0.9241 O   0  0  0  0  0
    3.0578   -1.2782    0.6595 C   0  0  0  0  0
    2.0467   -1.8906    1.5829 H   0  0  0  0  0
    3.3824   -2.3132   -0.3765 O   0  0  0  0  0
  1  2  1  0  0  0
  2 54  1  0  0  0
  2 39  1  0  0  0
  2  3  1  0  0  0
  3  4  1  0  0  0
  4  5  1  0  0  0
  5  8  1  0  0  0
  5  7  1  0  0  0
  5  6  2  0  0  0
  8  9  1  0  0  0
  9 12  1  0  0  0
  9 11  1  0  0  0
  9 10  2  0  0  0
 12 13  1  0  0  0
 13 14  1  0  0  0
 14 36  1  0  0  0
 14 16  1  0  0  0
 14 15  1  0  0  0
 16 17  1  0  0  0
 17 29  1  0  0  0
 17 19  1  0  0  0
 17 18  1  0  0  0
 19 28  1  0  0  0
 19 20  1  0  0  0
 20 21  2  0  0  0
 21 22  1  0  0  0
 22 28  2  0  0  0
 22 23  1  0  0  0
 23 25  2  0  0  0
 23 24  1  0  0  0
 25 26  1  0  0  0
 26 27  2  0  0  0
 27 28  1  0  0  0
 29 36  1  0  0  0
 29 31  1  0  0  0
 29 30  1  0  0  0
 31 32  1  0  0  0
 32 35  1  0  0  0
 32 34  1  0  0  0
 32 33  2  0  0  0
 36 38  1  0  0  0
 36 37  1  0  0  0
 39 40  1  0  0  0
 40 51  1  0  0  0
 40 42  1  0  0  0
 40 41  1  0  0  0
 42 47  1  0  0  0
 42 43  1  0  0  0
 43 44  2  0  0  0
 44 45  1  0  0  0
 45 46  1  0  0  0
 46 47  2  0  0  0
 46 48  1  0  0  0
 48 50  2  0  0  0
 48 49  1  0  0  0
 51 54  1  0  0  0
 51 53  1  0  0  0
 51 52  1  0  0  0
 54 56  1  0  0  0
 54 55  1  0  0  0
M  END
> <SMILES>
[H]C5(COP(=O)(O)OP(=O)(O)OCC3([H])(OC([H])(N2C=NC=1C(N)=NC=NC=12)C([H])(OP(=O)(O)O)C3([H])(O)))(OC([H])(N4C=CCC(=C4)C(N)=O)C([H])(O)C5([H])(O))

> <NAME>
NADPH

> <BioCyc_link>
http://biocyc.org/HUMAN/NEW-IMAGE?object=NADPH

> <BioCyc_name_HTML>
NADPH

> <CAS>
2646-71-1

> <KEGG_ID>
C00005

> <toxTree.tree.cramer.CramerTreeResult>


> <FORMULA>


> <toxTree.tree.cramer.CramerRules>


$$$$
CAMP
 OpenBabel30120812303D

 26 29  0  0  0  0  0  0  0  0999 V2000
    1.0000    0.0000    0.0000 H   0  0  0  0  0
    2.5000    0.0000    0.0000 C   0  0  0  0  0
    3.0510   -1.3928    0.3142 C   0  0  0  0  0
    4.0846   -1.7171   -0.6180 O   0  0  0  0  0
    5.2022   -0.8277   -0.5821 P   0  0  0  0  0
    6.2225   -1.2758   -1.5862 O   0  0  0  0  0
    5.8365   -0.8450    0.7771 O   0  0  0  0  0
    4.7382    0.5880   -0.9326 O   0  0  0  0  0
    3.6452    1.0166    0.0515 C   0  0  0  0  0
    3.3140    2.2587    0.8245 H   0  0  0  0  0
    4.8686   -0.9114   -0.9273 C   0  0  0  0  0
    5.6195   -1.8415   -1.8335 H   0  0  0  0  0
    5.7770   -2.0855   -1.1426 O   0  0  0  0  0
    3.2823    0.7231    0.0305 C   0  0  0  0  0
    1.9419    1.3798   -0.1186 H   0  0  0  0  0
    4.6963    0.5766   -0.5587 O   0  0  0  0  0
    2.6913    1.0008    1.3809 N   0  0  0  0  0
    2.5903    2.2094    1.9567 C   0  0  0  0  0
    2.0356    2.0811    3.2365 N   0  0  0  0  0
    1.7886    0.8078    3.4670 C   0  0  0  0  0
    1.2284    0.0472    4.5842 C   0  0  0  0  0
    0.7714    0.7278    5.8403 N   0  0  0  0  0
    1.1371   -1.3252    4.4351 N   0  0  0  0  0
    1.5554   -1.9337    3.2566 C   0  0  0  0  0
    2.0587   -1.2736    2.2468 N   0  0  0  0  0
    2.2062    0.0621    2.2702 C   0  0  0  0  0
  1  2  1  0  0  0
  2  9  1  0  0  0
  2  3  1  0  0  0
  2 16  1  0  0  0
  3  4  1  0  0  0
  4  5  1  0  0  0
  5  8  1  0  0  0
  5  7  1  0  0  0
  5  6  2  0  0  0
  8  9  1  0  0  0
  9 11  1  0  0  0
  9 10  1  0  0  0
 11 14  1  0  0  0
 11 13  1  0  0  0
 11 12  1  0  0  0
 14 16  1  0  0  0
 14 17  1  0  0  0
 14 15  1  0  0  0
 17 26  1  0  0  0
 17 18  1  0  0  0
 18 19  2  0  0  0
 19 20  1  0  0  0
 20 26  2  0  0  0
 20 21  1  0  0  0
 21 23  2  0  0  0
 21 22  1  0  0  0
 23 24  1  0  0  0
 24 25  2  0  0  0
 25 26  1  0  0  0
M  END
> <SMILES>
[H]C12(COP(=O)(O)OC1([H])C([H])(O)C([H])(O2)N4C=NC=3C(N)=NC=NC=34)

> <NAME>
CAMP

> <BioCyc_link>
http://biocyc.org/HUMAN/NEW-IMAGE?object=CAMP

> <BioCyc_name_HTML>
cyclic-AMP

> <CAS>
60-92-4

> <KEGG_ID>
C00575

> <toxTree.tree.cramer.CramerTreeResult>


> <FORMULA>


> <toxTree.tree.cramer.CramerRules>


$$$$
ACETYL-COA
 OpenBabel30120812303D

 55 57  0  0  0  0  0  0  0  0999 V2000
    1.0000    0.0000    0.0000 H   0  0  0  0  0
    2.5000    0.0000    0.0000 C   0  0  0  0  0
    2.9034    0.1217   -1.4396 C   0  0  0  0  0
    4.3999    0.1302   -1.5413 O   0  0  0  0  0
    4.8033    0.2519   -2.9809 P   0  0  0  0  0
    4.2639   -0.9208   -3.7449 O   0  0  0  0  0
    4.2352    1.5066   -3.5751 O   0  0  0  0  0
    6.2998    0.2605   -3.0825 O   0  0  0  0  0
    6.7032    0.3821   -4.5222 P   0  0  0  0  0
    6.1638   -0.7906   -5.2862 O   0  0  0  0  0
    6.1351    1.6368   -5.1164 O   0  0  0  0  0
    8.1997    0.3907   -4.6238 O   0  0  0  0  0
    8.6031    0.5124   -6.0634 C   0  0  0  0  0
   10.0996    0.5210   -6.1651 C   0  0  0  0  0
   10.6390    1.6937   -5.4011 C   0  0  0  0  0
   10.6677   -0.7337   -5.5708 C   0  0  0  0  0
   10.5030    0.6426   -7.6047 C   0  0  0  0  0
    9.9349    1.8973   -8.1989 O   0  0  0  0  0
   11.9995    0.6512   -7.7064 C   0  0  0  0  0
   12.8362    0.5464   -6.4658 O   0  0  0  0  0
   12.6594    0.7647   -9.0486 N   0  0  0  0  0
   14.1560    0.7733   -9.1503 C   0  0  0  0  0
   14.5594    0.8949  -10.5899 C   0  0  0  0  0
   16.0559    0.9035  -10.6915 C   0  0  0  0  0
   16.8925    0.7987   -9.4509 O   0  0  0  0  0
   16.7158    1.0169  -12.0338 N   0  0  0  0  0
   18.2123    1.0255  -12.1355 C   0  0  0  0  0
   18.6157    1.1472  -13.5751 C   0  0  0  0  0
   20.1122    1.1558  -13.6767 S   0  0  0  0  0
   20.5156    1.2774  -15.1163 C   0  0  0  0  0
   19.4661    1.3677  -16.1842 C   0  0  0  0  0
   21.9685    1.3088  -15.4881 O   0  0  0  0  0
    3.0599    1.1537    0.8679 O   0  0  0  0  0
    4.4904    0.6582    1.2094 C   0  0  0  0  0
    5.0630    1.3496    2.4111 H   0  0  0  0  0
    5.4454    0.9430    0.0883 N   0  0  0  0  0
    6.1375    0.0329   -0.6155 C   0  0  0  0  0
    6.9010    0.6737   -1.5995 N   0  0  0  0  0
    6.6943    1.9723   -1.5194 C   0  0  0  0  0
    7.1824    3.1454   -2.2447 C   0  0  0  0  0
    8.1503    3.0122   -3.3829 N   0  0  0  0  0
    6.7152    4.3825   -1.8381 N   0  0  0  0  0
    5.8084    4.4812   -0.7884 C   0  0  0  0  0
    5.3597    3.4468   -0.1271 N   0  0  0  0  0
    5.7422    2.1921   -0.4204 C   0  0  0  0  0
    4.3235   -0.8601    1.4286 C   0  0  0  0  0
    4.1957   -1.1812    2.8882 H   0  0  0  0  0
    5.5233   -1.6057    0.9241 O   0  0  0  0  0
    3.0578   -1.2782    0.6595 C   0  0  0  0  0
    2.0467   -1.8906    1.5829 H   0  0  0  0  0
    3.3824   -2.3132   -0.3765 O   0  0  0  0  0
    2.1309   -2.6995   -1.1076 P   0  0  0  0  0
    1.1459   -3.2710   -0.1313 O   0  0  0  0  0
    1.5136   -1.4944   -1.7531 O   0  0  0  0  0
    2.4555   -3.7345   -2.1437 O   0  0  0  0  0
  1  2  1  0  0  0
  2 49  1  0  0  0
  2 33  1  0  0  0
  2  3  1  0  0  0
  3  4  1  0  0  0
  4  5  1  0  0  0
  5  8  1  0  0  0
  5  7  1  0  0  0
  5  6  2  0  0  0
  8  9  1  0  0  0
  9 12  1  0  0  0
  9 11  1  0  0  0
  9 10  2  0  0  0
 12 13  1  0  0  0
 13 14  1  0  0  0
 14 17  1  0  0  0
 14 16  1  0  0  0
 14 15  1  0  0  0
 17 19  1  0  0  0
 17 18  1  0  0  0
 19 21  1  0  0  0
 19 20  2  0  0  0
 21 22  1  0  0  0
 22 23  1  0  0  0
 23 24  1  0  0  0
 24 26  1  0  0  0
 24 25  2  0  0  0
 26 27  1  0  0  0
 27 28  1  0  0  0
 28 29  1  0  0  0
 29 30  1  0  0  0
 30 32  2  0  0  0
 30 31  1  0  0  0
 33 34  1  0  0  0
 34 46  1  0  0  0
 34 36  1  0  0  0
 34 35  1  0  0  0
 36 45  1  0  0  0
 36 37  1  0  0  0
 37 38  2  0  0  0
 38 39  1  0  0  0
 39 45  2  0  0  0
 39 40  1  0  0  0
 40 42  2  0  0  0
 40 41  1  0  0  0
 42 43  1  0  0  0
 43 44  2  0  0  0
 44 45  1  0  0  0
 46 49  1  0  0  0
 46 48  1  0  0  0
 46 47  1  0  0  0
 49 51  1  0  0  0
 49 50  1  0  0  0
 51 52  1  0  0  0
 52 55  1  0  0  0
 52 54  1  0  0  0
 52 53  2  0  0  0
M  END
> <SMILES>
[H]C3(COP(=O)(O)OP(=O)(O)OCC(C)(C)C(O)C(=O)NCCC(=O)NCCSC(C)=O)(OC([H])(N2C=NC=1C(N)=NC=NC=12)C([H])(O)C3([H])(OP(=O)(O)O))

> <NAME>
ACETYL-COA

> <BioCyc_link>
http://biocyc.org/HUMAN/NEW-IMAGE?object=ACETYL-COA

> <BioCyc_name_HTML>
acetyl-CoA

> <CAS>
72-89-9

> <KEGG_ID>
C00024

> <toxTree.tree.cramer.CramerTreeResult>


> <FORMULA>


> <toxTree.tree.cramer.CramerRules>


$$$$
CPD-678
 OpenBabel30120812303D

  3  2  0  0  0  0  0  0  0  0999 V2000
    1.0000    0.0000    0.0000 Se  0  0  0  0  0
    0.4993    1.4140    0.0000 H   0  0  0  0  0
    2.5000    0.0000    0.0000 H   0  0  0  0  0
  1  3  1  0  0  0
  1  2  1  0  0  0
M  END
> <SMILES>
[SeH2]

> <NAME>
CPD-678

> <BioCyc_link>
http://biocyc.org/HUMAN/NEW-IMAGE?object=CPD-678

> <BioCyc_name_HTML>
hydrogen selenide

> <CAS>
531-44-2

> <KEGG_ID>
C01528

> <toxTree.tree.cramer.CramerTreeResult>


> <FORMULA>


> <toxTree.tree.cramer.CramerRules>


$$$$
3-SULFINOALANINE
 OpenBabel30120812303D

 10  9  0  0  0  0  0  0  0  0999 V2000
    1.0000    0.0000    0.0000 H   0  0  0  0  0
    2.5000    0.0000    0.0000 C   0  0  0  0  0
    2.9931   -0.6977    1.2329 N   0  0  0  0  0
    3.0193   -0.7348   -1.2002 C   0  0  0  0  0
    2.5089   -2.1452   -1.1833 S   0  0  0  0  0
    1.0090   -2.1546   -1.1775 O   0  0  0  0  0
    3.0282   -2.8800   -2.3834 O   0  0  0  0  0
    3.0007    1.4140    0.0000 C   0  0  0  0  0
    2.0265    2.5546    0.0000 O   0  0  0  0  0
    4.4756    1.6873    0.0000 O   0  0  0  0  0
  1  2  1  0  0  0
  2  8  1  0  0  0
  2  4  1  0  0  0
  2  3  1  0  0  0
  4  5  1  0  0  0
  5  7  1  0  0  0
  5  6  2  0  0  0
  8 10  1  0  0  0
  8  9  2  0  0  0
M  CHG  1   7  -1
M  END
> <SMILES>
[H]C(N)(CS(=O)[O-])C(=O)O

> <NAME>
3-SULFINOALANINE

> <BioCyc_link>
http://biocyc.org/HUMAN/NEW-IMAGE?object=3-SULFINOALANINE

> <BioCyc_name_HTML>
3-sulfinoalanine

> <CAS>
1115-65-7

> <KEGG_ID>
C00606

> <toxTree.tree.cramer.CramerTreeResult>


> <FORMULA>


> <toxTree.tree.cramer.CramerRules>


$$$$
FAD
 OpenBabel30120812303D

 60 65  0  0  0  0  0  0  0  0999 V2000
    1.0000    0.0000    0.0000 H   0  0  0  0  0
    2.5000    0.0000    0.0000 C   0  0  0  0  0
    2.9931   -0.6977    1.2329 O   0  0  0  0  0
    3.0193   -0.7348   -1.2002 C   0  0  0  0  0
    2.5089   -2.1452   -1.1833 O   0  0  0  0  0
    3.0282   -2.8800   -2.3834 P   0  0  0  0  0
    2.5451   -2.1957   -3.6277 O   0  0  0  0  0
    4.5282   -2.8706   -2.3892 O   0  0  0  0  0
    2.5178   -4.2904   -2.3666 O   0  0  0  0  0
    3.0371   -5.0252   -3.5667 P   0  0  0  0  0
    2.5540   -4.3409   -4.8110 O   0  0  0  0  0
    4.5371   -5.0158   -3.5725 O   0  0  0  0  0
    2.5267   -6.4356   -3.5499 O   0  0  0  0  0
    3.0460   -7.1704   -4.7500 C   0  0  0  0  0
    2.5356   -8.5808   -4.7331 C   0  0  0  0  0
    1.5389   -8.3926   -5.8382 H   0  0  0  0  0
    3.2894   -9.8411   -5.2243 O   0  0  0  0  0
    2.4559  -10.9966   -4.6091 C   0  0  0  0  0
    3.2286  -12.2798   -4.5308 H   0  0  0  0  0
    1.2509  -11.3030   -5.4483 N   0  0  0  0  0
    0.4034  -10.4064   -5.9776 C   0  0  0  0  0
   -0.5875  -11.0669   -6.7150 N   0  0  0  0  0
   -0.3693  -12.3646   -6.6532 C   0  0  0  0  0
   -1.0286  -13.5527   -7.1956 C   0  0  0  0  0
   -2.2552  -13.4420   -8.0519 N   0  0  0  0  0
   -0.4749  -14.7823   -6.8867 N   0  0  0  0  0
    0.6700  -14.8605   -6.1013 C   0  0  0  0  0
    1.2746  -13.8124   -5.6066 N   0  0  0  0  0
    0.8319  -12.5629   -5.8282 C   0  0  0  0  0
    2.0476  -10.4701   -3.2172 C   0  0  0  0  0
    2.9742  -10.9842   -2.1556 H   0  0  0  0  0
    0.6698  -10.9389   -2.8541 O   0  0  0  0  0
    2.0986   -8.9341   -3.2965 C   0  0  0  0  0
    3.0612   -8.3766   -2.2903 H   0  0  0  0  0
    0.7560   -8.3407   -2.9877 O   0  0  0  0  0
    3.0007    1.4140    0.0000 C   0  0  0  0  0
    2.5076    2.1117   -1.2329 H   0  0  0  0  0
    2.4814    2.1488    1.2002 O   0  0  0  0  0
    4.5007    1.4140    0.0000 C   0  0  0  0  0
    4.9938    0.7163    1.2329 H   0  0  0  0  0
    5.0200    0.6792   -1.2002 O   0  0  0  0  0
    5.0014    2.8279    0.0000 C   0  0  0  0  0
    6.5014    2.8279    0.0000 N   0  0  0  0  0
    7.1719    2.8410    1.1490 C   0  0  0  0  0
    6.4956    2.8550    2.3859 C   0  0  0  0  0
    7.2111    2.8671    3.5408 C   0  0  0  0  0
    6.4823    2.8875    4.8517 C   0  0  0  0  0
    8.6061    2.8610    3.5391 C   0  0  0  0  0
    9.3382    2.8624    4.8483 C   0  0  0  0  0
    9.3186    2.8539    2.3831 C   0  0  0  0  0
    8.6399    2.8398    1.1461 C   0  0  0  0  0
    9.3064    2.8268   -0.0027 N   0  0  0  0  0
    8.6359    2.8138   -1.1498 C   0  0  0  0  0
    9.3112    2.7997   -2.3896 C   0  0  0  0  0
   10.8109    2.7983   -2.4196 O   0  0  0  0  0
    8.6147    2.7875   -3.5546 N   0  0  0  0  0
    7.2246    2.7881   -3.5957 C   0  0  0  0  0
    6.5284    2.7752   -4.9243 O   0  0  0  0  0
    6.4702    2.8004   -2.4338 N   0  0  0  0  0
    7.1689    2.8149   -1.1438 C   0  0  0  0  0
  1  2  1  0  0  0
  2 36  1  0  0  0
  2  4  1  0  0  0
  2  3  1  0  0  0
  4  5  1  0  0  0
  5  6  1  0  0  0
  6  9  1  0  0  0
  6  8  1  0  0  0
  6  7  2  0  0  0
  9 10  1  0  0  0
 10 13  1  0  0  0
 10 12  1  0  0  0
 10 11  2  0  0  0
 13 14  1  0  0  0
 14 15  1  0  0  0
 15 33  1  0  0  0
 15 17  1  0  0  0
 15 16  1  0  0  0
 17 18  1  0  0  0
 18 30  1  0  0  0
 18 20  1  0  0  0
 18 19  1  0  0  0
 20 29  1  0  0  0
 20 21  1  0  0  0
 21 22  2  0  0  0
 22 23  1  0  0  0
 23 29  2  0  0  0
 23 24  1  0  0  0
 24 26  2  0  0  0
 24 25  1  0  0  0
 26 27  1  0  0  0
 27 28  2  0  0  0
 28 29  1  0  0  0
 30 33  1  0  0  0
 30 32  1  0  0  0
 30 31  1  0  0  0
 33 35  1  0  0  0
 33 34  1  0  0  0
 36 39  1  0  0  0
 36 38  1  0  0  0
 36 37  1  0  0  0
 39 42  1  0  0  0
 39 41  1  0  0  0
 39 40  1  0  0  0
 42 43  1  0  0  0
 43 60  1  0  0  0
 43 44  1  0  0  0
 44 51  2  0  0  0
 44 45  1  0  0  0
 45 46  2  0  0  0
 46 48  1  0  0  0
 46 47  1  0  0  0
 48 50  2  0  0  0
 48 49  1  0  0  0
 50 51  1  0  0  0
 51 52  1  0  0  0
 52 53  2  0  0  0
 53 54  1  0  0  0
 53 60  1  0  0  0
 54 56  1  0  0  0
 54 55  2  0  0  0
 56 57  1  0  0  0
 57 59  1  0  0  0
 57 58  2  0  0  0
 59 60  2  0  0  0
M  END
> <SMILES>
[H]C(O)(COP(=O)(O)OP(=O)(O)OCC3([H])(OC([H])(N2C=NC=1C(N)=NC=NC=12)C([H])(O)C3([H])(O)))C([H])(O)C([H])(O)CN5C=6C=C(C)C(C)=CC=6(N=C4C(=O)NC(=O)N=C45)

> <NAME>
FAD

> <BioCyc_link>
http://biocyc.org/HUMAN/NEW-IMAGE?object=FAD

> <BioCyc_name_HTML>
FAD

> <CAS>
146-14-5

> <KEGG_ID>
C00016

> <toxTree.tree.cramer.CramerTreeResult>


> <FORMULA>


> <toxTree.tree.cramer.CramerRules>


$$$$
CPD-4211
 OpenBabel30120812303D

 14 13  0  0  0  0  0  0  0  0999 V2000
    1.0000    0.0000    0.0000 C   0  0  0  0  0
    2.5000    0.0000    0.0000 C   0  0  0  0  0
    3.2500   -1.2990    0.0000 C   0  0  0  0  0
    3.2500    1.2990    0.0000 C   0  0  0  0  0
    4.7500    1.2990    0.0000 C   0  0  0  0  0
    5.2507    2.7130    0.0000 O   0  0  0  0  0
    6.7507    2.7130    0.0000 P   0  0  0  0  0
    7.2438    2.0153    1.2329 O   0  0  0  0  0
    7.2700    1.9782   -1.2002 O   0  0  0  0  0
    7.2514    4.1270    0.0000 O   0  0  0  0  0
    8.7514    4.1270    0.0000 P   0  0  0  0  0
    9.2445    3.4293    1.2329 O   0  0  0  0  0
    9.2707    3.3922   -1.2002 O   0  0  0  0  0
    9.2521    5.5409    0.0000 O   0  0  0  0  0
  1  2  1  0  0  0
  2  4  2  0  0  0
  2  3  1  0  0  0
  4  5  1  0  0  0
  5  6  1  0  0  0
  6  7  1  0  0  0
  7 10  1  0  0  0
  7  9  1  0  0  0
  7  8  2  0  0  0
 10 11  1  0  0  0
 11 14  1  0  0  0
 11 13  1  0  0  0
 11 12  2  0  0  0
M  END
> <SMILES>
CC(C)=CCOP(=O)(O)OP(=O)(O)O

> <NAME>
CPD-4211

> <BioCyc_link>
http://biocyc.org/HUMAN/NEW-IMAGE?object=CPD-4211

> <BioCyc_name_HTML>
dimethylallyl-diphosphate

> <CAS>
358-71-4

> <KEGG_ID>
C00235

> <toxTree.tree.cramer.CramerTreeResult>


> <FORMULA>


> <toxTree.tree.cramer.CramerRules>


$$$$
AICAR
 OpenBabel30120812303D

 26 27  0  0  0  0  0  0  0  0999 V2000
    1.0000    0.0000    0.0000 H   0  0  0  0  0
    2.5000    0.0000    0.0000 C   0  0  0  0  0
    2.9034    0.1217   -1.4396 C   0  0  0  0  0
    4.3999    0.1302   -1.5413 O   0  0  0  0  0
    4.8033    0.2519   -2.9809 P   0  0  0  0  0
    4.2639   -0.9208   -3.7449 O   0  0  0  0  0
    4.2352    1.5066   -3.5751 O   0  0  0  0  0
    6.2998    0.2605   -3.0825 O   0  0  0  0  0
    3.0599    1.1537    0.8679 O   0  0  0  0  0
    4.4904    0.6582    1.2094 C   0  0  0  0  0
    5.0630    1.3496    2.4111 H   0  0  0  0  0
    5.4454    0.9430    0.0883 N   0  0  0  0  0
    5.7404    2.1654   -0.4169 C   0  0  0  0  0
    6.6263    1.9503   -1.4196 N   0  0  0  0  0
    6.8270    0.6628   -1.4925 C   0  0  0  0  0
    7.7409   -0.0152   -2.4698 C   0  0  0  0  0
    8.5112    0.7998   -3.4660 N   0  0  0  0  0
    7.8844   -1.5082   -2.4509 O   0  0  0  0  0
    6.1220    0.0639   -0.5992 C   0  0  0  0  0
    6.0833   -1.4196   -0.3806 N   0  0  0  0  0
    4.3235   -0.8601    1.4286 C   0  0  0  0  0
    4.1957   -1.1812    2.8882 H   0  0  0  0  0
    5.5233   -1.6057    0.9241 O   0  0  0  0  0
    3.0578   -1.2782    0.6595 C   0  0  0  0  0
    2.0467   -1.8906    1.5829 H   0  0  0  0  0
    3.3824   -2.3132   -0.3765 O   0  0  0  0  0
  1  2  1  0  0  0
  2 24  1  0  0  0
  2  9  1  0  0  0
  2  3  1  0  0  0
  3  4  1  0  0  0
  4  5  1  0  0  0
  5  8  1  0  0  0
  5  7  1  0  0  0
  5  6  2  0  0  0
  9 10  1  0  0  0
 10 21  1  0  0  0
 10 12  1  0  0  0
 10 11  1  0  0  0
 12 13  1  0  0  0
 12 19  1  0  0  0
 13 14  2  0  0  0
 14 15  1  0  0  0
 15 19  2  0  0  0
 15 16  1  0  0  0
 16 18  2  0  0  0
 16 17  1  0  0  0
 19 20  1  0  0  0
 21 24  1  0  0  0
 21 23  1  0  0  0
 21 22  1  0  0  0
 24 26  1  0  0  0
 24 25  1  0  0  0
M  END
> <SMILES>
[H]C2(COP(=O)(O)O)(OC([H])(N1C=NC(C(N)=O)=C1(N))C([H])(O)C2([H])(O))

> <NAME>
AICAR

> <BioCyc_link>
http://biocyc.org/HUMAN/NEW-IMAGE?object=AICAR

> <BioCyc_name_HTML>
aminoimidazole

> <CAS>
3031-94-5

> <KEGG_ID>
C04677

> <toxTree.tree.cramer.CramerTreeResult>


> <FORMULA>


> <toxTree.tree.cramer.CramerRules>


$$$$
TETRADECANOYL-COA
 OpenBabel30120812303D

 67 69  0  0  0  0  0  0  0  0999 V2000
    1.0000    0.0000    0.0000 H   0  0  0  0  0
    2.5000    0.0000    0.0000 C   0  0  0  0  0
    2.9034    0.1217   -1.4396 C   0  0  0  0  0
    4.3999    0.1302   -1.5413 O   0  0  0  0  0
    4.8033    0.2519   -2.9809 P   0  0  0  0  0
    4.2639   -0.9208   -3.7449 O   0  0  0  0  0
    4.2352    1.5066   -3.5751 O   0  0  0  0  0
    6.2998    0.2605   -3.0825 O   0  0  0  0  0
    6.7032    0.3821   -4.5222 P   0  0  0  0  0
    6.1638   -0.7906   -5.2862 O   0  0  0  0  0
    6.1351    1.6368   -5.1164 O   0  0  0  0  0
    8.1997    0.3907   -4.6238 O   0  0  0  0  0
    8.6031    0.5124   -6.0634 C   0  0  0  0  0
   10.0996    0.5210   -6.1651 C   0  0  0  0  0
   10.6390    1.6937   -5.4011 C   0  0  0  0  0
   10.6677   -0.7337   -5.5708 C   0  0  0  0  0
   10.5030    0.6426   -7.6047 C   0  0  0  0  0
    9.9349    1.8973   -8.1989 O   0  0  0  0  0
   11.9995    0.6512   -7.7064 C   0  0  0  0  0
   12.8362    0.5464   -6.4658 O   0  0  0  0  0
   12.6594    0.7647   -9.0486 N   0  0  0  0  0
   14.1560    0.7733   -9.1503 C   0  0  0  0  0
   14.5594    0.8949  -10.5899 C   0  0  0  0  0
   16.0559    0.9035  -10.6915 C   0  0  0  0  0
   16.8925    0.7987   -9.4509 O   0  0  0  0  0
   16.7158    1.0169  -12.0338 N   0  0  0  0  0
   18.2123    1.0255  -12.1355 C   0  0  0  0  0
   18.6157    1.1472  -13.5751 C   0  0  0  0  0
   20.1122    1.1558  -13.6767 S   0  0  0  0  0
   20.5156    1.2774  -15.1163 C   0  0  0  0  0
   19.4661    1.3677  -16.1842 O   0  0  0  0  0
   21.9685    1.3088  -15.4881 C   0  0  0  0  0
   22.1018    1.4346  -16.9768 C   0  0  0  0  0
   23.5547    1.4661  -17.3485 C   0  0  0  0  0
   23.6880    1.5919  -18.8373 C   0  0  0  0  0
   25.1409    1.6233  -19.2090 C   0  0  0  0  0
   25.2743    1.7491  -20.6977 C   0  0  0  0  0
   26.7271    1.7805  -21.0694 C   0  0  0  0  0
   26.8605    1.9063  -22.5582 C   0  0  0  0  0
   28.3134    1.9377  -22.9299 C   0  0  0  0  0
   28.4467    2.0635  -24.4187 C   0  0  0  0  0
   29.8996    2.0949  -24.7904 C   0  0  0  0  0
   30.0329    2.2207  -26.2791 C   0  0  0  0  0
   31.4858    2.2522  -26.6508 C   0  0  0  0  0
    3.0599    1.1537    0.8679 O   0  0  0  0  0
    4.4904    0.6582    1.2094 C   0  0  0  0  0
    5.0630    1.3496    2.4111 H   0  0  0  0  0
    5.4454    0.9430    0.0883 N   0  0  0  0  0
    6.1375    0.0329   -0.6155 C   0  0  0  0  0
    6.9010    0.6737   -1.5995 N   0  0  0  0  0
    6.6943    1.9723   -1.5194 C   0  0  0  0  0
    7.1824    3.1454   -2.2447 C   0  0  0  0  0
    8.1503    3.0122   -3.3829 N   0  0  0  0  0
    6.7152    4.3825   -1.8381 N   0  0  0  0  0
    5.8084    4.4812   -0.7884 C   0  0  0  0  0
    5.3597    3.4468   -0.1271 N   0  0  0  0  0
    5.7422    2.1921   -0.4204 C   0  0  0  0  0
    4.3235   -0.8601    1.4286 C   0  0  0  0  0
    4.1957   -1.1812    2.8882 H   0  0  0  0  0
    5.5233   -1.6057    0.9241 O   0  0  0  0  0
    3.0578   -1.2782    0.6595 C   0  0  0  0  0
    2.0467   -1.8906    1.5829 H   0  0  0  0  0
    3.3824   -2.3132   -0.3765 O   0  0  0  0  0
    2.1309   -2.6995   -1.1076 P   0  0  0  0  0
    1.1459   -3.2710   -0.1313 O   0  0  0  0  0
    1.5136   -1.4944   -1.7531 O   0  0  0  0  0
    2.4555   -3.7345   -2.1437 O   0  0  0  0  0
  1  2  1  0  0  0
  2 61  1  0  0  0
  2 45  1  0  0  0
  2  3  1  0  0  0
  3  4  1  0  0  0
  4  5  1  0  0  0
  5  8  1  0  0  0
  5  7  1  0  0  0
  5  6  2  0  0  0
  8  9  1  0  0  0
  9 12  1  0  0  0
  9 11  1  0  0  0
  9 10  2  0  0  0
 12 13  1  0  0  0
 13 14  1  0  0  0
 14 17  1  0  0  0
 14 16  1  0  0  0
 14 15  1  0  0  0
 17 19  1  0  0  0
 17 18  1  0  0  0
 19 21  1  0  0  0
 19 20  2  0  0  0
 21 22  1  0  0  0
 22 23  1  0  0  0
 23 24  1  0  0  0
 24 26  1  0  0  0
 24 25  2  0  0  0
 26 27  1  0  0  0
 27 28  1  0  0  0
 28 29  1  0  0  0
 29 30  1  0  0  0
 30 32  1  0  0  0
 30 31  2  0  0  0
 32 33  1  0  0  0
 33 34  1  0  0  0
 34 35  1  0  0  0
 35 36  1  0  0  0
 36 37  1  0  0  0
 37 38  1  0  0  0
 38 39  1  0  0  0
 39 40  1  0  0  0
 40 41  1  0  0  0
 41 42  1  0  0  0
 42 43  1  0  0  0
 43 44  1  0  0  0
 45 46  1  0  0  0
 46 58  1  0  0  0
 46 48  1  0  0  0
 46 47  1  0  0  0
 48 57  1  0  0  0
 48 49  1  0  0  0
 49 50  2  0  0  0
 50 51  1  0  0  0
 51 57  2  0  0  0
 51 52  1  0  0  0
 52 54  2  0  0  0
 52 53  1  0  0  0
 54 55  1  0  0  0
 55 56  2  0  0  0
 56 57  1  0  0  0
 58 61  1  0  0  0
 58 60  1  0  0  0
 58 59  1  0  0  0
 61 63  1  0  0  0
 61 62  1  0  0  0
 63 64  1  0  0  0
 64 67  1  0  0  0
 64 66  1  0  0  0
 64 65  2  0  0  0
M  END
> <SMILES>
[H]C3(COP(=O)(O)OP(=O)(O)OCC(C)(C)C(O)C(=O)NCCC(=O)NCCSC(=O)CCCCCCCCCCCCC)(OC([H])(N2C=NC=1C(N)=NC=NC=12)C([H])(O)C3([H])(OP(=O)(O)O))

> <NAME>
TETRADECANOYL-COA

> <BioCyc_link>
http://biocyc.org/HUMAN/NEW-IMAGE?object=TETRADECANOYL-COA

> <BioCyc_name_HTML>
myristoyl-CoA

> <CAS>


> <KEGG_ID>
C02593

> <toxTree.tree.cramer.CramerTreeResult>


> <FORMULA>


> <toxTree.tree.cramer.CramerRules>


$$$$
CPD-488
 OpenBabel30120812303D

 20 20  0  0  0  0  0  0  0  0999 V2000
    1.0000    0.0000    0.0000 H   0  0  0  0  0
    2.5000    0.0000    0.0000 C   0  0  0  0  0
    2.9688    0.1628    1.4155 C   0  0  0  0  0
    3.0315   -1.3200   -0.5633 O   0  0  0  0  0
    2.6379   -1.4463   -1.9315 C   0  0  0  0  0
    1.1440   -1.3129   -1.9536 H   0  0  0  0  0
    3.0711   -2.7838   -2.4545 O   0  0  0  0  0
    2.6585   -2.9175   -3.8904 P   0  0  0  0  0
    1.1654   -2.8106   -3.9864 O   0  0  0  0  0
    3.2661   -1.8178   -4.7099 O   0  0  0  0  0
    3.0918   -4.2549   -4.4134 O   0  0  0  0  0
    3.1450   -0.4160   -2.7815 C   0  0  0  0  0
    2.6818   -0.6625   -4.1867 H   0  0  0  0  0
    4.6449   -0.4238   -2.7694 O   0  0  0  0  0
    2.6181    0.9406   -2.3079 C   0  0  0  0  0
    1.1216    0.9571   -2.4091 H   0  0  0  0  0
    3.1588    2.0403   -3.1730 O   0  0  0  0  0
    3.0321    1.1590   -0.8492 C   0  0  0  0  0
    2.4525    2.4503   -0.3527 H   0  0  0  0  0
    4.5256    1.2439   -0.7383 O   0  0  0  0  0
  1  2  1  0  0  0
  2 18  1  0  0  0
  2  4  1  0  0  0
  2  3  1  0  0  0
  4  5  1  0  0  0
  5 12  1  0  0  0
  5  7  1  0  0  0
  5  6  1  0  0  0
  7  8  1  0  0  0
  8 11  1  0  0  0
  8 10  1  0  0  0
  8  9  2  0  0  0
 12 15  1  0  0  0
 12 14  1  0  0  0
 12 13  1  0  0  0
 15 18  1  0  0  0
 15 17  1  0  0  0
 15 16  1  0  0  0
 18 20  1  0  0  0
 18 19  1  0  0  0
M  END
> <SMILES>
[H]C1(C)(OC([H])(OP(=O)(O)O)C([H])(O)C([H])(O)C1([H])(O))

> <NAME>
CPD-488

> <BioCyc_link>
http://biocyc.org/HUMAN/NEW-IMAGE?object=CPD-488

> <BioCyc_name_HTML>
&beta;-L-fucose

> <CAS>
526-31-8

> <KEGG_ID>
C02985

> <toxTree.tree.cramer.CramerTreeResult>


> <FORMULA>


> <toxTree.tree.cramer.CramerRules>


$$$$
DIHYDROXY-ACETONE-PHOSPHATE
 OpenBabel30120812303D

 10  9  0  0  0  0  0  0  0  0999 V2000
    1.0000    0.0000    0.0000 O   0  0  0  0  0
    2.5000    0.0000    0.0000 C   0  0  0  0  0
    3.0007    1.4140    0.0000 C   0  0  0  0  0
    2.0265    2.5546    0.0000 O   0  0  0  0  0
    4.4756    1.6873    0.0000 C   0  0  0  0  0
    4.7102    3.1688    0.0000 O   0  0  0  0  0
    6.1851    3.4422    0.0000 P   0  0  0  0  0
    6.7971    2.8460    1.2329 O   0  0  0  0  0
    6.8297    2.8143   -1.2002 O   0  0  0  0  0
    6.4198    4.9237    0.0000 O   0  0  0  0  0
  1  2  1  0  0  0
  2  3  1  0  0  0
  3  5  1  0  0  0
  3  4  2  0  0  0
  5  6  1  0  0  0
  6  7  1  0  0  0
  7 10  1  0  0  0
  7  9  1  0  0  0
  7  8  2  0  0  0
M  END
> <SMILES>
OCC(=O)COP(=O)(O)O

> <NAME>
DIHYDROXY-ACETONE-PHOSPHATE

> <BioCyc_link>
http://biocyc.org/HUMAN/NEW-IMAGE?object=DIHYDROXY-ACETONE-PHOSPHATE

> <BioCyc_name_HTML>
dihydroxyacetone

> <CAS>
57-04-5

> <KEGG_ID>
C00111

> <toxTree.tree.cramer.CramerTreeResult>


> <FORMULA>


> <toxTree.tree.cramer.CramerRules>


$$$$
CO-A
 OpenBabel30120812303D

 52 54  0  0  0  0  0  0  0  0999 V2000
    1.0000    0.0000    0.0000 H   0  0  0  0  0
    2.5000    0.0000    0.0000 C   0  0  0  0  0
    2.9034    0.1217   -1.4396 C   0  0  0  0  0
    4.3999    0.1302   -1.5413 O   0  0  0  0  0
    4.8033    0.2519   -2.9809 P   0  0  0  0  0
    4.2639   -0.9208   -3.7449 O   0  0  0  0  0
    4.2352    1.5066   -3.5751 O   0  0  0  0  0
    6.2998    0.2605   -3.0825 O   0  0  0  0  0
    6.7032    0.3821   -4.5222 P   0  0  0  0  0
    6.1638   -0.7906   -5.2862 O   0  0  0  0  0
    6.1351    1.6368   -5.1164 O   0  0  0  0  0
    8.1997    0.3907   -4.6238 O   0  0  0  0  0
    8.6031    0.5124   -6.0634 C   0  0  0  0  0
   10.0996    0.5210   -6.1651 C   0  0  0  0  0
   10.6390    1.6937   -5.4011 C   0  0  0  0  0
   10.6677   -0.7337   -5.5708 C   0  0  0  0  0
   10.5030    0.6426   -7.6047 C   0  0  0  0  0
    9.9349    1.8973   -8.1989 O   0  0  0  0  0
   11.9995    0.6512   -7.7064 C   0  0  0  0  0
   12.8362    0.5464   -6.4658 O   0  0  0  0  0
   12.6594    0.7647   -9.0486 N   0  0  0  0  0
   14.1560    0.7733   -9.1503 C   0  0  0  0  0
   14.5594    0.8949  -10.5899 C   0  0  0  0  0
   16.0559    0.9035  -10.6915 C   0  0  0  0  0
   16.8925    0.7987   -9.4509 O   0  0  0  0  0
   16.7158    1.0169  -12.0338 N   0  0  0  0  0
   18.2123    1.0255  -12.1355 C   0  0  0  0  0
   18.6157    1.1472  -13.5751 C   0  0  0  0  0
   20.1122    1.1558  -13.6767 S   0  0  0  0  0
    3.0599    1.1537    0.8679 O   0  0  0  0  0
    4.4904    0.6582    1.2094 C   0  0  0  0  0
    5.0630    1.3496    2.4111 H   0  0  0  0  0
    5.4454    0.9430    0.0883 N   0  0  0  0  0
    6.1375    0.0329   -0.6155 C   0  0  0  0  0
    6.9010    0.6737   -1.5995 N   0  0  0  0  0
    6.6943    1.9723   -1.5194 C   0  0  0  0  0
    7.1824    3.1454   -2.2447 C   0  0  0  0  0
    8.1503    3.0122   -3.3829 N   0  0  0  0  0
    6.7152    4.3825   -1.8381 N   0  0  0  0  0
    5.8084    4.4812   -0.7884 C   0  0  0  0  0
    5.3597    3.4468   -0.1271 N   0  0  0  0  0
    5.7422    2.1921   -0.4204 C   0  0  0  0  0
    4.3235   -0.8601    1.4286 C   0  0  0  0  0
    4.1957   -1.1812    2.8882 H   0  0  0  0  0
    5.5233   -1.6057    0.9241 O   0  0  0  0  0
    3.0578   -1.2782    0.6595 C   0  0  0  0  0
    2.0467   -1.8906    1.5829 H   0  0  0  0  0
    3.3824   -2.3132   -0.3765 O   0  0  0  0  0
    2.1309   -2.6995   -1.1076 P   0  0  0  0  0
    1.1459   -3.2710   -0.1313 O   0  0  0  0  0
    1.5136   -1.4944   -1.7531 O   0  0  0  0  0
    2.4555   -3.7345   -2.1437 O   0  0  0  0  0
  1  2  1  0  0  0
  2 46  1  0  0  0
  2 30  1  0  0  0
  2  3  1  0  0  0
  3  4  1  0  0  0
  4  5  1  0  0  0
  5  8  1  0  0  0
  5  7  1  0  0  0
  5  6  2  0  0  0
  8  9  1  0  0  0
  9 12  1  0  0  0
  9 11  1  0  0  0
  9 10  2  0  0  0
 12 13  1  0  0  0
 13 14  1  0  0  0
 14 17  1  0  0  0
 14 16  1  0  0  0
 14 15  1  0  0  0
 17 19  1  0  0  0
 17 18  1  0  0  0
 19 21  1  0  0  0
 19 20  2  0  0  0
 21 22  1  0  0  0
 22 23  1  0  0  0
 23 24  1  0  0  0
 24 26  1  0  0  0
 24 25  2  0  0  0
 26 27  1  0  0  0
 27 28  1  0  0  0
 28 29  1  0  0  0
 30 31  1  0  0  0
 31 43  1  0  0  0
 31 33  1  0  0  0
 31 32  1  0  0  0
 33 42  1  0  0  0
 33 34  1  0  0  0
 34 35  2  0  0  0
 35 36  1  0  0  0
 36 42  2  0  0  0
 36 37  1  0  0  0
 37 39  2  0  0  0
 37 38  1  0  0  0
 39 40  1  0  0  0
 40 41  2  0  0  0
 41 42  1  0  0  0
 43 46  1  0  0  0
 43 45  1  0  0  0
 43 44  1  0  0  0
 46 48  1  0  0  0
 46 47  1  0  0  0
 48 49  1  0  0  0
 49 52  1  0  0  0
 49 51  1  0  0  0
 49 50  2  0  0  0
M  END
> <SMILES>
[H]C3(COP(=O)(O)OP(=O)(O)OCC(C)(C)C(O)C(=O)NCCC(=O)NCCS)(OC([H])(N2C=NC=1C(N)=NC=NC=12)C([H])(O)C3([H])(OP(=O)(O)O))

> <NAME>
CO-A

> <BioCyc_link>
http://biocyc.org/HUMAN/NEW-IMAGE?object=CO-A

> <BioCyc_name_HTML>
coenzyme

> <CAS>
85-61-0

> <KEGG_ID>
C00010

> <toxTree.tree.cramer.CramerTreeResult>


> <FORMULA>


> <toxTree.tree.cramer.CramerRules>


$$$$
3-P-SERINE
 OpenBabel30120812303D

 12 11  0  0  0  0  0  0  0  0999 V2000
    1.0000    0.0000    0.0000 H   0  0  0  0  0
    2.5000    0.0000    0.0000 C   0  0  0  0  0
    2.9931   -0.6977    1.2329 N   0  0  0  0  0
    3.0193   -0.7348   -1.2002 C   0  0  0  0  0
    2.5089   -2.1452   -1.1833 O   0  0  0  0  0
    3.0282   -2.8800   -2.3834 P   0  0  0  0  0
    2.5451   -2.1957   -3.6277 O   0  0  0  0  0
    4.5282   -2.8706   -2.3892 O   0  0  0  0  0
    2.5178   -4.2904   -2.3666 O   0  0  0  0  0
    3.0007    1.4140    0.0000 C   0  0  0  0  0
    2.0265    2.5546    0.0000 O   0  0  0  0  0
    4.4756    1.6873    0.0000 O   0  0  0  0  0
  1  2  1  0  0  0
  2 10  1  0  0  0
  2  4  1  0  0  0
  2  3  1  0  0  0
  4  5  1  0  0  0
  5  6  1  0  0  0
  6  9  1  0  0  0
  6  8  1  0  0  0
  6  7  2  0  0  0
 10 12  1  0  0  0
 10 11  2  0  0  0
M  END
> <SMILES>
[H]C(N)(COP(=O)(O)O)C(=O)O

> <NAME>
3-P-SERINE

> <BioCyc_link>
http://biocyc.org/HUMAN/NEW-IMAGE?object=3-P-SERINE

> <BioCyc_name_HTML>
3-phospho-serine

> <CAS>
17885-08-4

> <KEGG_ID>
C01005

> <toxTree.tree.cramer.CramerTreeResult>


> <FORMULA>


> <toxTree.tree.cramer.CramerRules>


$$$$
ERYTHROSE-4P
 OpenBabel30120812303D

 12 11  0  0  0  0  0  0  0  0999 V2000
    1.0000    0.0000    0.0000 O   0  0  0  0  0
    2.5000    0.0000    0.0000 C   0  0  0  0  0
    3.2500    1.2990    0.0000 C   0  0  0  0  0
    2.8733    2.1162    1.2002 O   0  0  0  0  0
    4.7249    1.0257    0.0000 C   0  0  0  0  0
    5.1016    0.2085   -1.2002 O   0  0  0  0  0
    5.4749    2.3247    0.0000 C   0  0  0  0  0
    6.9498    2.0514    0.0000 O   0  0  0  0  0
    7.6998    3.3504    0.0000 P   0  0  0  0  0
    7.3421    4.1263   -1.2329 O   0  0  0  0  0
    7.3231    4.1676    1.2002 O   0  0  0  0  0
    9.1746    3.0771    0.0000 O   0  0  0  0  0
  1  2  2  0  0  0
  2  3  1  0  0  0
  3  5  1  0  0  0
  3  4  1  0  0  0
  5  7  1  0  0  0
  5  6  1  0  0  0
  7  8  1  0  0  0
  8  9  1  0  0  0
  9 12  1  0  0  0
  9 11  1  0  0  0
  9 10  2  0  0  0
M  END
> <SMILES>
O=CC(O)C(O)COP(=O)(O)O

> <NAME>
ERYTHROSE-4P

> <BioCyc_link>
http://biocyc.org/HUMAN/NEW-IMAGE?object=ERYTHROSE-4P

> <BioCyc_name_HTML>
D-erythrose-4-phosphate

> <CAS>
585-18-2

> <KEGG_ID>
C00279

> <toxTree.tree.cramer.CramerTreeResult>


> <FORMULA>


> <toxTree.tree.cramer.CramerRules>


$$$$
ESTRONE-SULFATE
 OpenBabel30120812303D

 24 27  0  0  0  0  0  0  0  0999 V2000
    1.0000    0.0000    0.0000 C   0  0  0  0  0
    2.5000    0.0000    0.0000 C   0  0  0  0  0
    3.8264    0.7444    0.1851 C   0  0  0  0  0
    4.9268    0.0018   -0.5794 C   0  0  0  0  0
    5.2127   -1.9429   -0.4677 C   0  0  0  0  0
    4.4322   -0.6758   -0.2341 C   0  0  0  0  0
    5.0936    0.5329   -0.4249 C   0  0  0  0  0
    4.4415    1.7302   -0.2353 C   0  0  0  0  0
    3.0995    1.7306    0.1509 C   0  0  0  0  0
    2.4424    0.5178    0.3469 C   0  0  0  0  0
    3.1084   -0.6814    0.1508 C   0  0  0  0  0
    2.3375   -1.9553    0.3822 C   0  0  0  0  0
    3.0479   -3.1393   -0.2696 C   0  0  0  0  0
    4.5122   -3.1339    0.1838 C   0  0  0  0  0
    4.9973   -1.4433   -0.0801 C   0  0  0  0  0
    4.7087   -1.4835   -0.4707 C   0  0  0  0  0
    3.4133    0.5360    0.1202 C   0  0  0  0  0
    4.8281    0.0336   -0.2175 C   0  0  0  0  0
    6.2897   -0.2046   -0.4561 O   0  0  0  0  0
    2.3714    3.0264    0.3531 O   0  0  0  0  0
    3.0847    4.3286    0.1405 S   0  0  0  0  0
    4.2428    4.4172    1.0897 O   0  0  0  0  0
    3.6134    4.4083   -1.2610 O   0  0  0  0  0
    2.1421    5.4650    0.4053 O   0  0  0  0  0
  1  2  1  0  0  0
  2  3  1  0  0  0
  2 15  1  0  0  0
  2 18  1  0  0  0
  3  4  1  0  0  0
  4  5  1  0  0  0
  5 14  1  0  0  0
  5  6  1  0  0  0
  6  7  1  0  0  0
  6 11  2  0  0  0
  7  8  2  0  0  0
  8  9  1  0  0  0
  9 10  2  0  0  0
  9 20  1  0  0  0
 10 11  1  0  0  0
 11 12  1  0  0  0
 12 13  1  0  0  0
 13 14  1  0  0  0
 14 15  1  0  0  0
 15 16  1  0  0  0
 16 17  1  0  0  0
 17 18  1  0  0  0
 18 19  2  0  0  0
 20 21  1  0  0  0
 21 24  1  0  0  0
 21 23  2  0  0  0
 21 22  2  0  0  0
M  END
> <SMILES>
CC23(CCC1C=4C=CC(=CC=4(CCC1C3(CCC2(=O))))OS(=O)(=O)O)

> <NAME>
ESTRONE-SULFATE

> <BioCyc_link>
http://biocyc.org/HUMAN/NEW-IMAGE?object=ESTRONE-SULFATE

> <BioCyc_name_HTML>
estrone-sulfate

> <CAS>
481-97-0

> <KEGG_ID>
C02538

> <toxTree.tree.cramer.CramerTreeResult>


> <FORMULA>


> <toxTree.tree.cramer.CramerRules>


$$$$
FMN
 OpenBabel30120812303D

 31 33  0  0  0  0  0  0  0  0999 V2000
    1.0000    0.0000    0.0000 C   0  0  0  0  0
    2.5000    0.0000    0.0000 C   0  0  0  0  0
    3.1618   -1.1866   -0.0024 C   0  0  0  0  0
    4.5715   -1.1965   -0.0076 C   0  0  0  0  0
    5.2500   -2.3410   -0.0091 N   0  0  0  0  0
    6.5741   -2.3134   -0.0140 C   0  0  0  0  0
    7.3621   -3.5510   -0.0159 C   0  0  0  0  0
    6.6859   -4.8899   -0.0113 O   0  0  0  0  0
    8.7443   -3.4562   -0.0220 N   0  0  0  0  0
    9.3838   -2.2213   -0.0243 C   0  0  0  0  0
   10.8834   -2.1863   -0.0298 O   0  0  0  0  0
    8.7040   -1.0464   -0.0218 N   0  0  0  0  0
    7.2922   -1.0342   -0.0166 C   0  0  0  0  0
    6.6154    0.1093   -0.0151 N   0  0  0  0  0
    7.3464    1.4191   -0.0190 C   0  0  0  0  0
    6.3558    2.5454   -0.0163 C   0  0  0  0  0
    5.4655    2.4511    1.1872 O   0  0  0  0  0
    7.0868    3.8552   -0.0201 C   0  0  0  0  0
    7.9772    3.9495   -1.2236 O   0  0  0  0  0
    6.0962    4.9816   -0.0175 C   0  0  0  0  0
    5.2059    4.8873    1.1861 O   0  0  0  0  0
    6.8272    6.2914   -0.0213 C   0  0  0  0  0
    5.8366    7.4177   -0.0186 O   0  0  0  0  0
    6.5676    8.7275   -0.0224 P   0  0  0  0  0
    7.4217    8.8191    1.2073 O   0  0  0  0  0
    7.4580    8.8218   -1.2259 O   0  0  0  0  0
    5.5770    9.8538   -0.0198 O   0  0  0  0  0
    5.2874    0.0851   -0.0103 C   0  0  0  0  0
    4.5360    1.2793   -0.0085 C   0  0  0  0  0
    3.1795    1.2183    0.0025 C   0  0  0  0  0
    2.3911    2.4943    0.0177 C   0  0  0  0  0
  1  2  1  0  0  0
  2 30  1  0  0  0
  2  3  2  0  0  0
  3  4  1  0  0  0
  4 28  2  0  0  0
  4  5  1  0  0  0
  5  6  2  0  0  0
  6 13  1  0  0  0
  6  7  1  0  0  0
  7  9  1  0  0  0
  7  8  2  0  0  0
  9 10  1  0  0  0
 10 12  1  0  0  0
 10 11  2  0  0  0
 12 13  2  0  0  0
 13 14  1  0  0  0
 14 28  1  0  0  0
 14 15  1  0  0  0
 15 16  1  0  0  0
 16 18  1  0  0  0
 16 17  1  0  0  0
 18 20  1  0  0  0
 18 19  1  0  0  0
 20 22  1  0  0  0
 20 21  1  0  0  0
 22 23  1  0  0  0
 23 24  1  0  0  0
 24 27  1  0  0  0
 24 26  1  0  0  0
 24 25  2  0  0  0
 28 29  1  0  0  0
 29 30  2  0  0  0
 30 31  1  0  0  0
M  END
> <SMILES>
CC2=CC=3N=C1C(=O)NC(=O)N=C1N(CC(O)C(O)C(O)COP(=O)(O)O)C=3(C=C2(C))

> <NAME>
FMN

> <BioCyc_link>
http://biocyc.org/HUMAN/NEW-IMAGE?object=FMN

> <BioCyc_name_HTML>
FMN

> <CAS>
146-17-8

> <KEGG_ID>
C00061

> <toxTree.tree.cramer.CramerTreeResult>


> <FORMULA>


> <toxTree.tree.cramer.CramerRules>


$$$$
XANTHOSINE-5-PHOSPHATE
 OpenBabel30120812303D

 28 30  0  0  0  0  0  0  0  0999 V2000
    1.0000    0.0000    0.0000 H   0  0  0  0  0
    2.5000    0.0000    0.0000 C   0  0  0  0  0
    2.9034    0.1217   -1.4396 C   0  0  0  0  0
    4.3999    0.1302   -1.5413 O   0  0  0  0  0
    4.8033    0.2519   -2.9809 P   0  0  0  0  0
    4.2639   -0.9208   -3.7449 O   0  0  0  0  0
    4.2352    1.5066   -3.5751 O   0  0  0  0  0
    6.2998    0.2605   -3.0825 O   0  0  0  0  0
    3.0599    1.1537    0.8679 O   0  0  0  0  0
    4.4904    0.6582    1.2094 C   0  0  0  0  0
    5.0630    1.3496    2.4111 H   0  0  0  0  0
    5.4454    0.9430    0.0883 N   0  0  0  0  0
    6.1375    0.0329   -0.6155 C   0  0  0  0  0
    6.9010    0.6737   -1.5995 N   0  0  0  0  0
    6.6943    1.9723   -1.5194 C   0  0  0  0  0
    7.1824    3.1454   -2.2447 C   0  0  0  0  0
    8.1503    3.0122   -3.3829 O   0  0  0  0  0
    6.7152    4.3825   -1.8381 N   0  0  0  0  0
    5.8084    4.4812   -0.7884 C   0  0  0  0  0
    5.3204    5.8440   -0.3949 O   0  0  0  0  0
    5.3597    3.4468   -0.1271 N   0  0  0  0  0
    5.7422    2.1921   -0.4204 C   0  0  0  0  0
    4.3235   -0.8601    1.4286 C   0  0  0  0  0
    4.1957   -1.1812    2.8882 H   0  0  0  0  0
    5.5233   -1.6057    0.9241 O   0  0  0  0  0
    3.0578   -1.2782    0.6595 C   0  0  0  0  0
    2.0467   -1.8906    1.5829 H   0  0  0  0  0
    3.3824   -2.3132   -0.3765 O   0  0  0  0  0
  1  2  1  0  0  0
  2 26  1  0  0  0
  2  9  1  0  0  0
  2  3  1  0  0  0
  3  4  1  0  0  0
  4  5  1  0  0  0
  5  8  1  0  0  0
  5  7  1  0  0  0
  5  6  2  0  0  0
  9 10  1  0  0  0
 10 23  1  0  0  0
 10 12  1  0  0  0
 10 11  1  0  0  0
 12 22  1  0  0  0
 12 13  1  0  0  0
 13 14  2  0  0  0
 14 15  1  0  0  0
 15 22  2  0  0  0
 15 16  1  0  0  0
 16 18  1  0  0  0
 16 17  2  0  0  0
 18 19  1  0  0  0
 19 21  1  0  0  0
 19 20  2  0  0  0
 21 22  1  0  0  0
 23 26  1  0  0  0
 23 25  1  0  0  0
 23 24  1  0  0  0
 26 28  1  0  0  0
 26 27  1  0  0  0
M  END
> <SMILES>
[H]C3(COP(=O)(O)O)(OC([H])(N2C=NC=1C(=O)NC(=O)NC=12)C([H])(O)C3([H])(O))

> <NAME>
XANTHOSINE-5-PHOSPHATE

> <BioCyc_link>
http://biocyc.org/HUMAN/NEW-IMAGE?object=XANTHOSINE-5-PHOSPHATE

> <BioCyc_name_HTML>
xanthosine-5-phosphate

> <CAS>
523-98-8

> <KEGG_ID>
C00655

> <toxTree.tree.cramer.CramerTreeResult>


> <FORMULA>


> <toxTree.tree.cramer.CramerRules>


$$$$
PRPP
 OpenBabel30120812303D

 26 26  0  0  0  0  0  0  0  0999 V2000
    1.0000    0.0000    0.0000 H   0  0  0  0  0
    2.5000    0.0000    0.0000 C   0  0  0  0  0
    2.9034    0.1217   -1.4396 O   0  0  0  0  0
    3.0599    1.1537    0.8679 C   0  0  0  0  0
    3.0416    2.4828    0.1728 H   0  0  0  0  0
    2.2387    1.3587    2.1063 O   0  0  0  0  0
    4.4904    0.6582    1.2094 C   0  0  0  0  0
    5.0630    1.3496    2.4111 H   0  0  0  0  0
    4.3235   -0.8601    1.4286 O   0  0  0  0  0
    3.0578   -1.2782    0.6595 C   0  0  0  0  0
    2.0467   -1.8906    1.5829 H   0  0  0  0  0
    3.3824   -2.3132   -0.3765 C   0  0  0  0  0
    2.1309   -2.6995   -1.1076 O   0  0  0  0  0
    2.4555   -3.7345   -2.1437 P   0  0  0  0  0
    3.4404   -3.1630   -3.1200 O   0  0  0  0  0
    3.0728   -4.9396   -1.4982 O   0  0  0  0  0
    1.2040   -4.1208   -2.8748 O   0  0  0  0  0
    5.4454    0.9430    0.0883 O   0  0  0  0  0
    6.8129    0.4496    0.4579 P   0  0  0  0  0
    7.2767    1.1621    1.6937 O   0  0  0  0  0
    6.7738   -1.0220    0.7457 O   0  0  0  0  0
    7.7679    0.7344   -0.6632 O   0  0  0  0  0
    9.1354    0.2411   -0.2936 P   0  0  0  0  0
    9.5992    0.9536    0.9422 O   0  0  0  0  0
    9.0963   -1.2306   -0.0058 O   0  0  0  0  0
   10.0904    0.5258   -1.4147 O   0  0  0  0  0
  1  2  1  0  0  0
  2 10  1  0  0  0
  2  4  1  0  0  0
  2  3  1  0  0  0
  4  7  1  0  0  0
  4  6  1  0  0  0
  4  5  1  0  0  0
  7  9  1  0  0  0
  7 18  1  0  0  0
  7  8  1  0  0  0
  9 10  1  0  0  0
 10 12  1  0  0  0
 10 11  1  0  0  0
 12 13  1  0  0  0
 13 14  1  0  0  0
 14 17  1  0  0  0
 14 16  1  0  0  0
 14 15  2  0  0  0
 18 19  1  0  0  0
 19 22  1  0  0  0
 19 21  1  0  0  0
 19 20  2  0  0  0
 22 23  1  0  0  0
 23 26  1  0  0  0
 23 25  1  0  0  0
 23 24  2  0  0  0
M  END
> <SMILES>
[H]C1(O)(C([H])(O)C([H])(OC1([H])(COP(=O)(O)O))OP(=O)(O)OP(=O)(O)O)

> <NAME>
PRPP

> <BioCyc_link>
http://biocyc.org/HUMAN/NEW-IMAGE?object=PRPP

> <BioCyc_name_HTML>
5-phosphoribosyl

> <CAS>
13270-65-0

> <KEGG_ID>
C00119

> <toxTree.tree.cramer.CramerTreeResult>


> <FORMULA>


> <toxTree.tree.cramer.CramerRules>


$$$$
IODINE-MOLECULE
 OpenBabel30120812303D

  2  1  0  0  0  0  0  0  0  0999 V2000
    1.0000    0.0000    0.0000 I   0  0  0  0  0
    2.5000    0.0000    0.0000 I   0  0  0  0  0
  1  2  1  0  0  0
M  END
> <SMILES>
II

> <NAME>
IODINE-MOLECULE

> <BioCyc_link>
http://biocyc.org/HUMAN/NEW-IMAGE?object=IODINE-MOLECULE

> <BioCyc_name_HTML>
I<SUB>2</SUB>

> <CAS>


> <KEGG_ID>
C01382

> <toxTree.tree.cramer.CramerTreeResult>


> <FORMULA>


> <toxTree.tree.cramer.CramerRules>


$$$$
IMP
 OpenBabel30120812303D

 27 29  0  0  0  0  0  0  0  0999 V2000
    1.0000    0.0000    0.0000 H   0  0  0  0  0
    2.5000    0.0000    0.0000 C   0  0  0  0  0
    2.9034    0.1217   -1.4396 C   0  0  0  0  0
    4.3999    0.1302   -1.5413 O   0  0  0  0  0
    4.8033    0.2519   -2.9809 P   0  0  0  0  0
    4.2639   -0.9208   -3.7449 O   0  0  0  0  0
    4.2352    1.5066   -3.5751 O   0  0  0  0  0
    6.2998    0.2605   -3.0825 O   0  0  0  0  0
    3.0599    1.1537    0.8679 O   0  0  0  0  0
    4.4904    0.6582    1.2094 C   0  0  0  0  0
    5.0630    1.3496    2.4111 H   0  0  0  0  0
    5.4454    0.9430    0.0883 N   0  0  0  0  0
    6.1375    0.0329   -0.6155 C   0  0  0  0  0
    6.9010    0.6737   -1.5995 N   0  0  0  0  0
    6.6943    1.9723   -1.5194 C   0  0  0  0  0
    7.1824    3.1454   -2.2447 C   0  0  0  0  0
    8.1503    3.0122   -3.3829 O   0  0  0  0  0
    6.7152    4.3825   -1.8381 N   0  0  0  0  0
    5.8084    4.4812   -0.7884 C   0  0  0  0  0
    5.3597    3.4468   -0.1271 N   0  0  0  0  0
    5.7422    2.1921   -0.4204 C   0  0  0  0  0
    4.3235   -0.8601    1.4286 C   0  0  0  0  0
    4.1957   -1.1812    2.8882 H   0  0  0  0  0
    5.5233   -1.6057    0.9241 O   0  0  0  0  0
    3.0578   -1.2782    0.6595 C   0  0  0  0  0
    2.0467   -1.8906    1.5829 H   0  0  0  0  0
    3.3824   -2.3132   -0.3765 O   0  0  0  0  0
  1  2  1  0  0  0
  2 25  1  0  0  0
  2  9  1  0  0  0
  2  3  1  0  0  0
  3  4  1  0  0  0
  4  5  1  0  0  0
  5  8  1  0  0  0
  5  7  1  0  0  0
  5  6  2  0  0  0
  9 10  1  0  0  0
 10 22  1  0  0  0
 10 12  1  0  0  0
 10 11  1  0  0  0
 12 21  1  0  0  0
 12 13  1  0  0  0
 13 14  2  0  0  0
 14 15  1  0  0  0
 15 21  2  0  0  0
 15 16  1  0  0  0
 16 18  1  0  0  0
 16 17  2  0  0  0
 18 19  1  0  0  0
 19 20  2  0  0  0
 20 21  1  0  0  0
 22 25  1  0  0  0
 22 24  1  0  0  0
 22 23  1  0  0  0
 25 27  1  0  0  0
 25 26  1  0  0  0
M  END
> <SMILES>
[H]C3(COP(=O)(O)O)(OC([H])(N2C=NC=1C(=O)NC=NC=12)C([H])(O)C3([H])(O))

> <NAME>
IMP

> <BioCyc_link>
http://biocyc.org/HUMAN/NEW-IMAGE?object=IMP

> <BioCyc_name_HTML>
inosine-5'-phosphate

> <CAS>
131-99-7

> <KEGG_ID>
C00130

> <toxTree.tree.cramer.CramerTreeResult>


> <FORMULA>


> <toxTree.tree.cramer.CramerRules>


$$$$
UDP-GLUCOSE
 OpenBabel30120812303D

 45 47  0  0  0  0  0  0  0  0999 V2000
    1.0000    0.0000    0.0000 H   0  0  0  0  0
    2.5000    0.0000    0.0000 C   0  0  0  0  0
    2.9688    0.1628    1.4155 C   0  0  0  0  0
    4.4684    0.1666    1.4490 O   0  0  0  0  0
    3.0315   -1.3200   -0.5633 O   0  0  0  0  0
    2.6379   -1.4463   -1.9315 C   0  0  0  0  0
    1.1440   -1.3129   -1.9536 H   0  0  0  0  0
    3.0711   -2.7838   -2.4545 O   0  0  0  0  0
    2.6585   -2.9175   -3.8904 P   0  0  0  0  0
    1.1654   -2.8106   -3.9864 O   0  0  0  0  0
    3.2661   -1.8178   -4.7099 O   0  0  0  0  0
    3.0918   -4.2549   -4.4134 O   0  0  0  0  0
    2.6792   -4.3886   -5.8493 P   0  0  0  0  0
    1.1861   -4.2818   -5.9453 O   0  0  0  0  0
    3.2867   -3.2889   -6.6688 O   0  0  0  0  0
    3.1125   -5.7261   -6.3724 O   0  0  0  0  0
    2.6998   -5.8598   -7.8083 C   0  0  0  0  0
    3.1331   -7.1972   -8.3313 C   0  0  0  0  0
    3.3235   -7.0019   -9.8063 H   0  0  0  0  0
    4.3834   -7.6235   -7.5234 O   0  0  0  0  0
    4.4440   -9.1539   -7.7740 C   0  0  0  0  0
    5.2592   -9.8707   -6.7389 H   0  0  0  0  0
    5.0993   -9.4633   -9.0874 N   0  0  0  0  0
    5.1455  -10.7680   -9.5316 C   0  0  0  0  0
    5.7202  -11.0615  -10.7698 C   0  0  0  0  0
    6.2392  -10.0291  -11.5528 C   0  0  0  0  0
    6.8586  -10.3342  -12.8845 O   0  0  0  0  0
    6.1812   -8.7280  -11.0995 N   0  0  0  0  0
    5.6102   -8.4437   -9.8711 C   0  0  0  0  0
    5.5450   -7.0252   -9.3876 O   0  0  0  0  0
    2.9660   -9.5976   -7.7693 C   0  0  0  0  0
    2.5733  -10.1429   -6.4283 H   0  0  0  0  0
    2.7362  -10.6936   -8.7672 O   0  0  0  0  0
    2.1329   -8.3532   -8.1235 C   0  0  0  0  0
    1.1591   -8.0300   -7.0293 H   0  0  0  0  0
    1.3267   -8.5889   -9.3663 O   0  0  0  0  0
    3.1450   -0.4160   -2.7815 C   0  0  0  0  0
    2.6818   -0.6625   -4.1867 H   0  0  0  0  0
    4.6449   -0.4238   -2.7694 O   0  0  0  0  0
    2.6181    0.9406   -2.3079 C   0  0  0  0  0
    1.1216    0.9571   -2.4091 H   0  0  0  0  0
    3.1588    2.0403   -3.1730 O   0  0  0  0  0
    3.0321    1.1590   -0.8492 C   0  0  0  0  0
    2.4525    2.4503   -0.3527 H   0  0  0  0  0
    4.5256    1.2439   -0.7383 O   0  0  0  0  0
  1  2  1  0  0  0
  2 43  1  0  0  0
  2  5  1  0  0  0
  2  3  1  0  0  0
  3  4  1  0  0  0
  5  6  1  0  0  0
  6 37  1  0  0  0
  6  8  1  0  0  0
  6  7  1  0  0  0
  8  9  1  0  0  0
  9 12  1  0  0  0
  9 11  1  0  0  0
  9 10  2  0  0  0
 12 13  1  0  0  0
 13 16  1  0  0  0
 13 15  1  0  0  0
 13 14  2  0  0  0
 16 17  1  0  0  0
 17 18  1  0  0  0
 18 34  1  0  0  0
 18 20  1  0  0  0
 18 19  1  0  0  0
 20 21  1  0  0  0
 21 31  1  0  0  0
 21 23  1  0  0  0
 21 22  1  0  0  0
 23 29  1  0  0  0
 23 24  1  0  0  0
 24 25  2  0  0  0
 25 26  1  0  0  0
 26 28  1  0  0  0
 26 27  2  0  0  0
 28 29  1  0  0  0
 29 30  2  0  0  0
 31 34  1  0  0  0
 31 33  1  0  0  0
 31 32  1  0  0  0
 34 36  1  0  0  0
 34 35  1  0  0  0
 37 40  1  0  0  0
 37 39  1  0  0  0
 37 38  1  0  0  0
 40 43  1  0  0  0
 40 42  1  0  0  0
 40 41  1  0  0  0
 43 45  1  0  0  0
 43 44  1  0  0  0
M  END
> <SMILES>
[H]C3(CO)(OC([H])(OP(=O)(O)OP(=O)(O)OCC2([H])(OC([H])(N1C=CC(=O)NC1(=O))C([H])(O)C2([H])(O)))C([H])(O)C([H])(O)C3([H])(O))

> <NAME>
UDP-GLUCOSE

> <BioCyc_link>
http://biocyc.org/HUMAN/NEW-IMAGE?object=UDP-GLUCOSE

> <BioCyc_name_HTML>
UDP-D-glucose

> <CAS>
133-89-1

> <KEGG_ID>
C00029

> <toxTree.tree.cramer.CramerTreeResult>


> <FORMULA>


> <toxTree.tree.cramer.CramerRules>


$$$$
MI-HEXAKISPHOSPHATE
 OpenBabel30120812303D

 36 36  0  0  0  0  0  0  0  0999 V2000
    1.0000    0.0000    0.0000 O   0  0  0  0  0
    2.5000    0.0000    0.0000 P   0  0  0  0  0
    2.9931   -0.6977    1.2329 O   0  0  0  0  0
    3.0193   -0.7348   -1.2002 O   0  0  0  0  0
    3.0007    1.4140    0.0000 O   0  0  0  0  0
    4.5007    1.4140    0.0000 C   0  0  0  0  0
    5.0322    1.3275   -1.4326 C   0  0  0  0  0
    4.5076    0.0951   -2.1079 O   0  0  0  0  0
    4.9302   -1.1183   -1.3339 P   0  0  0  0  0
    6.4283   -1.1791   -1.2915 O   0  0  0  0  0
    4.4190   -1.0401    0.0742 O   0  0  0  0  0
    4.4056   -2.3507   -2.0091 O   0  0  0  0  0
    4.6386    2.4947   -2.1574 C   0  0  0  0  0
    5.0718    2.3644   -3.5876 O   0  0  0  0  0
    4.6592    3.5889   -4.3493 P   0  0  0  0  0
    3.1661    3.7225   -4.2967 O   0  0  0  0  0
    5.2668    4.8137   -3.7322 O   0  0  0  0  0
    5.0925    3.4586   -5.7795 O   0  0  0  0  0
    5.1457    3.7158   -1.6160 C   0  0  0  0  0
    6.6456    3.7015   -1.6176 O   0  0  0  0  0
    7.1592    4.9899   -1.0464 P   0  0  0  0  0
    6.6761    6.1312   -1.8914 O   0  0  0  0  0
    6.6432    5.1816    0.3489 O   0  0  0  0  0
    8.6591    4.9756   -1.0480 O   0  0  0  0  0
    4.6188    3.8989   -0.1908 C   0  0  0  0  0
    5.1595    5.1644    0.4059 O   0  0  0  0  0
    4.6322    5.3255    1.8009 P   0  0  0  0  0
    3.1348    5.4019    1.7562 O   0  0  0  0  0
    5.0218    4.1467    2.6427 O   0  0  0  0  0
    5.1729    6.5911    2.3975 O   0  0  0  0  0
    5.0328    2.6919    0.6569 C   0  0  0  0  0
    6.5263    2.6306    0.7824 O   0  0  0  0  0
    6.9105    1.4435    1.6149 P   0  0  0  0  0
    6.3062    1.5826    2.9807 O   0  0  0  0  0
    6.3895    0.1821    0.9923 O   0  0  0  0  0
    8.4040    1.3822    1.7404 O   0  0  0  0  0
  1  2  2  0  0  0
  2  5  1  0  0  0
  2  4  1  0  0  0
  2  3  1  0  0  0
  5  6  1  0  0  0
  6 31  1  0  0  0
  6  7  1  0  0  0
  7 13  1  0  0  0
  7  8  1  0  0  0
  8  9  1  0  0  0
  9 12  1  0  0  0
  9 11  1  0  0  0
  9 10  2  0  0  0
 13 19  1  0  0  0
 13 14  1  0  0  0
 14 15  1  0  0  0
 15 18  1  0  0  0
 15 17  1  0  0  0
 15 16  2  0  0  0
 19 25  1  0  0  0
 19 20  1  0  0  0
 20 21  1  0  0  0
 21 24  1  0  0  0
 21 23  1  0  0  0
 21 22  2  0  0  0
 25 31  1  0  0  0
 25 26  1  0  0  0
 26 27  1  0  0  0
 27 30  1  0  0  0
 27 29  1  0  0  0
 27 28  2  0  0  0
 31 32  1  0  0  0
 32 33  1  0  0  0
 33 36  1  0  0  0
 33 35  1  0  0  0
 33 34  2  0  0  0
M  END
> <SMILES>
O=P(O)(O)OC1C(OP(=O)(O)O)C(OP(=O)(O)O)C(OP(=O)(O)O)C(OP(=O)(O)O)C1(OP(=O)(O)O)

> <NAME>
MI-HEXAKISPHOSPHATE

> <BioCyc_link>
http://biocyc.org/HUMAN/NEW-IMAGE?object=MI-HEXAKISPHOSPHATE

> <BioCyc_name_HTML>
phytate

> <CAS>


> <KEGG_ID>
C01204

> <toxTree.tree.cramer.CramerTreeResult>


> <FORMULA>


> <toxTree.tree.cramer.CramerRules>


$$$$
CPD-2961
 OpenBabel30120812303D

 21 20  0  0  0  0  0  0  0  0999 V2000
    1.0000    0.0000    0.0000 H   0  0  0  0  0
    2.5000    0.0000    0.0000 C   0  0  0  0  0
    2.9931   -0.6977    1.2329 O   0  0  0  0  0
    3.0193   -0.7348   -1.2002 C   0  0  0  0  0
    2.5089   -2.1452   -1.1833 O   0  0  0  0  0
    3.0282   -2.8800   -2.3834 P   0  0  0  0  0
    2.5451   -2.1957   -3.6277 O   0  0  0  0  0
    4.5282   -2.8706   -2.3892 O   0  0  0  0  0
    2.5178   -4.2904   -2.3666 O   0  0  0  0  0
    3.0007    1.4140    0.0000 C   0  0  0  0  0
    2.5076    2.1117   -1.2329 H   0  0  0  0  0
    2.4814    2.1488    1.2002 O   0  0  0  0  0
    4.5007    1.4140    0.0000 C   0  0  0  0  0
    4.9938    0.7163    1.2329 H   0  0  0  0  0
    5.0200    0.6792   -1.2002 O   0  0  0  0  0
    5.0014    2.8279    0.0000 C   0  0  0  0  0
    4.5083    3.5256   -1.2329 H   0  0  0  0  0
    4.4821    3.5627    1.2002 O   0  0  0  0  0
    6.5014    2.8279    0.0000 C   0  0  0  0  0
    7.2514    1.5289    0.0000 O   0  0  0  0  0
    7.2514    4.1270    0.0000 O   0  0  0  0  0
  1  2  1  0  0  0
  2 10  1  0  0  0
  2  4  1  0  0  0
  2  3  1  0  0  0
  4  5  1  0  0  0
  5  6  1  0  0  0
  6  9  1  0  0  0
  6  8  1  0  0  0
  6  7  2  0  0  0
 10 13  1  0  0  0
 10 12  1  0  0  0
 10 11  1  0  0  0
 13 16  1  0  0  0
 13 15  1  0  0  0
 13 14  1  0  0  0
 16 19  1  0  0  0
 16 18  1  0  0  0
 16 17  1  0  0  0
 19 21  1  0  0  0
 19 20  2  0  0  0
M  END
> <SMILES>
[H]C(O)(COP(=O)(O)O)C([H])(O)C([H])(O)C([H])(O)C(=O)O

> <NAME>
CPD-2961

> <BioCyc_link>
http://biocyc.org/HUMAN/NEW-IMAGE?object=CPD-2961

> <BioCyc_name_HTML>
6-phospho-D-gluconate

> <CAS>


> <KEGG_ID>
C00345

> <toxTree.tree.cramer.CramerTreeResult>


> <FORMULA>


> <toxTree.tree.cramer.CramerRules>


$$$$
CREATINE-P
 OpenBabel30120812303D

 13 12  0  0  0  0  0  0  0  0999 V2000
    1.0000    0.0000    0.0000 C   0  0  0  0  0
    2.5000    0.0000    0.0000 N   0  0  0  0  0
    3.2500   -1.2990    0.0000 C   0  0  0  0  0
    2.2758   -2.4396    0.0000 C   0  0  0  0  0
    0.8009   -2.1663    0.0000 O   0  0  0  0  0
    2.7765   -3.8536    0.0000 O   0  0  0  0  0
    3.2500    1.2990    0.0000 C   0  0  0  0  0
    2.5000    2.5981    0.0000 N   0  0  0  0  0
    4.7500    1.2990    0.0000 N   0  0  0  0  0
    5.5000    2.5981    0.0000 P   0  0  0  0  0
    5.1423    3.3739   -1.2329 O   0  0  0  0  0
    5.1233    3.4152    1.2002 O   0  0  0  0  0
    6.9749    2.3247    0.0000 O   0  0  0  0  0
  1  2  1  0  0  0
  2  7  1  0  0  0
  2  3  1  0  0  0
  3  4  1  0  0  0
  4  6  1  0  0  0
  4  5  2  0  0  0
  7  9  2  0  0  0
  7  8  1  0  0  0
  9 10  1  0  0  0
 10 13  1  0  0  0
 10 12  1  0  0  0
 10 11  2  0  0  0
M  END
> <SMILES>
CN(CC(=O)O)C(N)=NP(=O)(O)O

> <NAME>
CREATINE-P

> <BioCyc_link>
http://biocyc.org/HUMAN/NEW-IMAGE?object=CREATINE-P

> <BioCyc_name_HTML>
creatine-phosphate

> <CAS>
67-07-2

> <KEGG_ID>
C02305

> <toxTree.tree.cramer.CramerTreeResult>


> <FORMULA>


> <toxTree.tree.cramer.CramerRules>


$$$$
5-PHOSPHORIBOSYL-N-FORMYLGLYCINEAMIDINE
 OpenBabel30120812303D

 24 24  0  0  0  0  0  0  0  0999 V2000
    1.0000    0.0000    0.0000 H   0  0  0  0  0
    2.5000    0.0000    0.0000 C   0  0  0  0  0
    2.9034    0.1217   -1.4396 C   0  0  0  0  0
    4.3999    0.1302   -1.5413 O   0  0  0  0  0
    4.8033    0.2519   -2.9809 P   0  0  0  0  0
    4.2639   -0.9208   -3.7449 O   0  0  0  0  0
    4.2352    1.5066   -3.5751 O   0  0  0  0  0
    6.2998    0.2605   -3.0825 O   0  0  0  0  0
    3.0599    1.1537    0.8679 O   0  0  0  0  0
    4.4904    0.6582    1.2094 C   0  0  0  0  0
    5.0630    1.3496    2.4111 H   0  0  0  0  0
    5.4454    0.9430    0.0883 N   0  0  0  0  0
    6.8864    0.5448    0.2111 C   0  0  0  0  0
    7.3723   -0.1381    1.4551 N   0  0  0  0  0
    7.8414    0.8295   -0.9100 C   0  0  0  0  0
    9.2088    0.3362   -0.5404 N   0  0  0  0  0
   10.3506    0.5024   -1.4989 C   0  0  0  0  0
   11.7181    0.0091   -1.1293 O   0  0  0  0  0
    4.3235   -0.8601    1.4286 C   0  0  0  0  0
    4.1957   -1.1812    2.8882 H   0  0  0  0  0
    5.5233   -1.6057    0.9241 O   0  0  0  0  0
    3.0578   -1.2782    0.6595 C   0  0  0  0  0
    2.0467   -1.8906    1.5829 H   0  0  0  0  0
    3.3824   -2.3132   -0.3765 O   0  0  0  0  0
  1  2  1  0  0  0
  2 22  1  0  0  0
  2  9  1  0  0  0
  2  3  1  0  0  0
  3  4  1  0  0  0
  4  5  1  0  0  0
  5  8  1  0  0  0
  5  7  1  0  0  0
  5  6  2  0  0  0
  9 10  1  0  0  0
 10 19  1  0  0  0
 10 12  1  0  0  0
 10 11  1  0  0  0
 12 13  2  0  0  0
 13 15  1  0  0  0
 13 14  1  0  0  0
 15 16  1  0  0  0
 16 17  1  0  0  0
 17 18  2  0  0  0
 19 22  1  0  0  0
 19 21  1  0  0  0
 19 20  1  0  0  0
 22 24  1  0  0  0
 22 23  1  0  0  0
M  END
> <SMILES>
[H]C1(COP(=O)(O)O)(OC([H])(N=C(N)CNC=O)C([H])(O)C1([H])(O))

> <NAME>
5-PHOSPHORIBOSYL-N-FORMYLGLYCINEAMIDINE

> <BioCyc_link>
http://biocyc.org/HUMAN/NEW-IMAGE?object=5-PHOSPHORIBOSYL-N-FORMYLGLYCINEAMIDINE

> <BioCyc_name_HTML>
5-phosphoribosyl-<i>N</i>-formylglycineamidine

> <CAS>


> <KEGG_ID>
C04640

> <toxTree.tree.cramer.CramerTreeResult>


> <FORMULA>


> <toxTree.tree.cramer.CramerRules>


$$$$
PANTETHEINE-P
 OpenBabel30120812303D

 22 21  0  0  0  0  0  0  0  0999 V2000
    1.0000    0.0000    0.0000 C   0  0  0  0  0
    2.5000    0.0000    0.0000 C   0  0  0  0  0
    2.9931   -0.6977    1.2329 C   0  0  0  0  0
    3.0193   -0.7348   -1.2002 C   0  0  0  0  0
    2.5089   -2.1452   -1.1833 O   0  0  0  0  0
    3.0282   -2.8800   -2.3834 P   0  0  0  0  0
    2.5451   -2.1957   -3.6277 O   0  0  0  0  0
    4.5282   -2.8706   -2.3892 O   0  0  0  0  0
    2.5178   -4.2904   -2.3666 O   0  0  0  0  0
    3.0007    1.4140    0.0000 C   0  0  0  0  0
    2.4814    2.1488    1.2002 O   0  0  0  0  0
    4.5007    1.4140    0.0000 C   0  0  0  0  0
    5.2507    0.1149    0.0000 O   0  0  0  0  0
    5.2507    2.7130    0.0000 N   0  0  0  0  0
    6.7507    2.7130    0.0000 C   0  0  0  0  0
    7.2514    4.1270    0.0000 C   0  0  0  0  0
    8.7514    4.1270    0.0000 C   0  0  0  0  0
    9.5014    2.8279    0.0000 O   0  0  0  0  0
    9.5014    5.4260    0.0000 N   0  0  0  0  0
   11.0014    5.4260    0.0000 C   0  0  0  0  0
   11.5021    6.8400    0.0000 C   0  0  0  0  0
   13.0021    6.8400    0.0000 S   0  0  0  0  0
  1  2  1  0  0  0
  2 10  1  0  0  0
  2  4  1  0  0  0
  2  3  1  0  0  0
  4  5  1  0  0  0
  5  6  1  0  0  0
  6  9  1  0  0  0
  6  8  1  0  0  0
  6  7  2  0  0  0
 10 12  1  0  0  0
 10 11  1  0  0  0
 12 14  1  0  0  0
 12 13  2  0  0  0
 14 15  1  0  0  0
 15 16  1  0  0  0
 16 17  1  0  0  0
 17 19  1  0  0  0
 17 18  2  0  0  0
 19 20  1  0  0  0
 20 21  1  0  0  0
 21 22  1  0  0  0
M  END
> <SMILES>
CC(C)(COP(=O)(O)O)C(O)C(=O)NCCC(=O)NCCS

> <NAME>
PANTETHEINE-P

> <BioCyc_link>
http://biocyc.org/HUMAN/NEW-IMAGE?object=PANTETHEINE-P

> <BioCyc_name_HTML>
4'-phosphopantetheine

> <CAS>


> <KEGG_ID>
C01134

> <toxTree.tree.cramer.CramerTreeResult>


> <FORMULA>


> <toxTree.tree.cramer.CramerRules>


$$$$
PHOSPHORYL-CHOLINE
 OpenBabel30120812303D

 11 10  0  0  0  0  0  0  0  0999 V2000
    1.0000    0.0000    0.0000 C   0  0  0  0  0
    2.5000    0.0000    0.0000 N   0  0  0  0  0
    2.9931   -0.6977    1.2329 C   0  0  0  0  0
    3.0193   -0.7348   -1.2002 C   0  0  0  0  0
    3.0007    1.4140    0.0000 C   0  0  0  0  0
    4.5007    1.4140    0.0000 C   0  0  0  0  0
    5.0014    2.8279    0.0000 O   0  0  0  0  0
    6.5014    2.8279    0.0000 P   0  0  0  0  0
    6.9945    2.1302    1.2329 O   0  0  0  0  0
    7.0207    2.0931   -1.2002 O   0  0  0  0  0
    7.0021    4.2419    0.0000 O   0  0  0  0  0
  1  2  1  0  0  0
  2  5  1  0  0  0
  2  4  1  0  0  0
  2  3  1  0  0  0
  5  6  1  0  0  0
  6  7  1  0  0  0
  7  8  1  0  0  0
  8 11  1  0  0  0
  8 10  1  0  0  0
  8  9  2  0  0  0
M  CHG  1   2   1
M  END
> <SMILES>
C[N+](C)(C)CCOP(=O)(O)O

> <NAME>
PHOSPHORYL-CHOLINE

> <BioCyc_link>
http://biocyc.org/HUMAN/NEW-IMAGE?object=PHOSPHORYL-CHOLINE

> <BioCyc_name_HTML>
phosphoryl-choline

> <CAS>
107-73-3

> <KEGG_ID>
C00588

> <toxTree.tree.cramer.CramerTreeResult>


> <FORMULA>


> <toxTree.tree.cramer.CramerRules>


$$$$
SARCOSINE
 OpenBabel30120812303D

  6  5  0  0  0  0  0  0  0  0999 V2000
    1.0000    0.0000    0.0000 C   0  0  0  0  0
    2.5000    0.0000    0.0000 N   0  0  0  0  0
    3.0007    1.4140    0.0000 C   0  0  0  0  0
    4.5007    1.4140    0.0000 C   0  0  0  0  0
    5.2507    0.1149    0.0000 O   0  0  0  0  0
    5.2507    2.7130    0.0000 O   0  0  0  0  0
  1  2  1  0  0  0
  2  3  1  0  0  0
  3  4  1  0  0  0
  4  6  1  0  0  0
  4  5  2  0  0  0
M  END
> <SMILES>
CNCC(=O)O

> <NAME>
SARCOSINE

> <BioCyc_link>
http://biocyc.org/HUMAN/NEW-IMAGE?object=SARCOSINE

> <BioCyc_name_HTML>
sarcosine

> <CAS>
107-97-1

> <KEGG_ID>
C00213

> <toxTree.tree.cramer.CramerTreeResult>


> <FORMULA>


> <toxTree.tree.cramer.CramerRules>


$$$$
SPERMIDINE
 OpenBabel30120812303D

 10  9  0  0  0  0  0  0  0  0999 V2000
    1.0000    0.0000    0.0000 N   0  0  0  0  0
    2.5000    0.0000    0.0000 C   0  0  0  0  0
    3.0007    1.4140    0.0000 C   0  0  0  0  0
    4.5007    1.4140    0.0000 C   0  0  0  0  0
    5.0014    2.8279    0.0000 C   0  0  0  0  0
    6.5014    2.8279    0.0000 N   0  0  0  0  0
    7.0021    4.2419    0.0000 C   0  0  0  0  0
    8.5021    4.2419    0.0000 C   0  0  0  0  0
    9.0028    5.6558    0.0000 C   0  0  0  0  0
   10.5028    5.6558    0.0000 N   0  0  0  0  0
  1  2  1  0  0  0
  2  3  1  0  0  0
  3  4  1  0  0  0
  4  5  1  0  0  0
  5  6  1  0  0  0
  6  7  1  0  0  0
  7  8  1  0  0  0
  8  9  1  0  0  0
  9 10  1  0  0  0
M  END
> <SMILES>
NCCCCNCCCN

> <NAME>
SPERMIDINE

> <BioCyc_link>
http://biocyc.org/HUMAN/NEW-IMAGE?object=SPERMIDINE

> <BioCyc_name_HTML>
spermidine

> <CAS>
124-20-9

> <KEGG_ID>
C00315

> <toxTree.tree.cramer.CramerTreeResult>


> <FORMULA>


> <toxTree.tree.cramer.CramerRules>


$$$$
SPERMINE
 OpenBabel30120812303D

 14 13  0  0  0  0  0  0  0  0999 V2000
    1.0000    0.0000    0.0000 N   0  0  0  0  0
    2.5000    0.0000    0.0000 C   0  0  0  0  0
    3.0007    1.4140    0.0000 C   0  0  0  0  0
    4.5007    1.4140    0.0000 C   0  0  0  0  0
    5.0014    2.8279    0.0000 N   0  0  0  0  0
    6.5014    2.8279    0.0000 C   0  0  0  0  0
    7.0021    4.2419    0.0000 C   0  0  0  0  0
    8.5021    4.2419    0.0000 C   0  0  0  0  0
    9.0028    5.6558    0.0000 C   0  0  0  0  0
   10.5028    5.6558    0.0000 N   0  0  0  0  0
   11.0036    7.0698    0.0000 C   0  0  0  0  0
   12.5036    7.0698    0.0000 C   0  0  0  0  0
   13.0043    8.4838    0.0000 C   0  0  0  0  0
   14.5043    8.4838    0.0000 N   0  0  0  0  0
  1  2  1  0  0  0
  2  3  1  0  0  0
  3  4  1  0  0  0
  4  5  1  0  0  0
  5  6  1  0  0  0
  6  7  1  0  0  0
  7  8  1  0  0  0
  8  9  1  0  0  0
  9 10  1  0  0  0
 10 11  1  0  0  0
 11 12  1  0  0  0
 12 13  1  0  0  0
 13 14  1  0  0  0
M  END
> <SMILES>
NCCCNCCCCNCCCN

> <NAME>
SPERMINE

> <BioCyc_link>
http://biocyc.org/HUMAN/NEW-IMAGE?object=SPERMINE

> <BioCyc_name_HTML>
spermine

> <CAS>
71-44-3

> <KEGG_ID>
C00750

> <toxTree.tree.cramer.CramerTreeResult>


> <FORMULA>


> <toxTree.tree.cramer.CramerRules>


$$$$
THIAMINE
 OpenBabel30120812303D

 18 19  0  0  0  0  0  0  0  0999 V2000
    1.0000    0.0000    0.0000 C   0  0  0  0  0
    2.5000    0.0000    0.0000 C   0  0  0  0  0
    3.1879   -1.1952   -0.0000 N   0  0  0  0  0
    4.5842   -1.1944    0.0121 C   0  0  0  0  0
    5.2744    0.0187    0.0181 C   0  0  0  0  0
    6.7743    0.0301    0.0312 C   0  0  0  0  0
    7.2643    1.4478    0.0354 N   0  0  0  0  0
    6.4601    2.5942    0.0432 C   0  0  0  0  0
    7.2728    3.6721    0.0354 S   0  0  0  0  0
    8.5504    3.2245    0.0324 C   0  0  0  0  0
    9.7842    4.0776    0.0293 C   0  0  0  0  0
   11.0002    3.1993    0.0265 C   0  0  0  0  0
   12.2340    4.0524    0.0234 O   0  0  0  0  0
    8.5168    1.8264    0.0325 C   0  0  0  0  0
    9.7104    0.9178    0.0298 C   0  0  0  0  0
    4.5744    1.2069    0.0121 C   0  0  0  0  0
    5.3151    2.5113    0.0185 N   0  0  0  0  0
    3.1903    1.1993    0.0000 N   0  0  0  0  0
  1  2  1  0  0  0
  2 18  1  0  0  0
  2  3  2  0  0  0
  3  4  1  0  0  0
  4  5  2  0  0  0
  5 16  1  0  0  0
  5  6  1  0  0  0
  6  7  1  0  0  0
  7 14  1  0  0  0
  7  8  2  0  0  0
  8  9  1  0  0  0
  9 10  1  0  0  0
 10 14  2  0  0  0
 10 11  1  0  0  0
 11 12  1  0  0  0
 12 13  1  0  0  0
 14 15  1  0  0  0
 16 18  2  0  0  0
 16 17  1  0  0  0
M  CHG  1   7   1
M  END
> <SMILES>
CC2=NC=C(C[N+]1=CSC(CCO)=C1(C))C(N)=N2

> <NAME>
THIAMINE

> <BioCyc_link>
http://biocyc.org/HUMAN/NEW-IMAGE?object=THIAMINE

> <BioCyc_name_HTML>
thiamin

> <CAS>
59-43-8

> <KEGG_ID>
C00378

> <toxTree.tree.cramer.CramerTreeResult>


> <FORMULA>


> <toxTree.tree.cramer.CramerRules>


$$$$
THIAMINE-PYROPHOSPHATE
 OpenBabel30120812303D

 26 27  0  0  0  0  0  0  0  0999 V2000
    1.0000    0.0000    0.0000 C   0  0  0  0  0
    2.5000    0.0000    0.0000 C   0  0  0  0  0
    3.1879   -1.1952   -0.0000 N   0  0  0  0  0
    4.5842   -1.1944    0.0121 C   0  0  0  0  0
    5.2744    0.0187    0.0181 C   0  0  0  0  0
    6.7743    0.0301    0.0312 C   0  0  0  0  0
    7.2643    1.4478    0.0354 N   0  0  0  0  0
    6.4601    2.5942    0.0432 C   0  0  0  0  0
    7.2728    3.6721    0.0354 S   0  0  0  0  0
    8.5504    3.2245    0.0324 C   0  0  0  0  0
    9.7842    4.0776    0.0293 C   0  0  0  0  0
   11.0002    3.1993    0.0265 C   0  0  0  0  0
   12.2340    4.0524    0.0234 O   0  0  0  0  0
   13.4500    3.1741    0.0206 P   0  0  0  0  0
   13.4442    2.3199    1.2536 O   0  0  0  0  0
   13.4378    2.2743   -1.1795 O   0  0  0  0  0
   14.6838    4.0271    0.0176 O   0  0  0  0  0
   15.8998    3.1489    0.0147 P   0  0  0  0  0
   15.8939    2.2946    1.2477 O   0  0  0  0  0
   15.8876    2.2490   -1.1854 O   0  0  0  0  0
   17.1336    4.0019    0.0117 O   0  0  0  0  0
    8.5168    1.8264    0.0325 C   0  0  0  0  0
    9.7104    0.9178    0.0298 C   0  0  0  0  0
    4.5744    1.2069    0.0121 C   0  0  0  0  0
    5.3151    2.5113    0.0185 N   0  0  0  0  0
    3.1903    1.1993    0.0000 N   0  0  0  0  0
  1  2  1  0  0  0
  2 26  1  0  0  0
  2  3  2  0  0  0
  3  4  1  0  0  0
  4  5  2  0  0  0
  5 24  1  0  0  0
  5  6  1  0  0  0
  6  7  1  0  0  0
  7 22  1  0  0  0
  7  8  2  0  0  0
  8  9  1  0  0  0
  9 10  1  0  0  0
 10 22  2  0  0  0
 10 11  1  0  0  0
 11 12  1  0  0  0
 12 13  1  0  0  0
 13 14  1  0  0  0
 14 17  1  0  0  0
 14 16  1  0  0  0
 14 15  2  0  0  0
 17 18  1  0  0  0
 18 21  1  0  0  0
 18 20  1  0  0  0
 18 19  2  0  0  0
 22 23  1  0  0  0
 24 26  2  0  0  0
 24 25  1  0  0  0
M  CHG  1   7   1
M  END
> <SMILES>
CC2=NC=C(C[N+]1=CSC(CCOP(=O)(O)OP(=O)(O)O)=C1(C))C(N)=N2

> <NAME>
THIAMINE-PYROPHOSPHATE

> <BioCyc_link>
http://biocyc.org/HUMAN/NEW-IMAGE?object=THIAMINE-PYROPHOSPHATE

> <BioCyc_name_HTML>
thiamine

> <CAS>
154-87-0

> <KEGG_ID>
C00068

> <toxTree.tree.cramer.CramerTreeResult>


> <FORMULA>


> <toxTree.tree.cramer.CramerRules>


$$$$
NICOTINATE_NUCLEOTIDE
 OpenBabel30120812303D

 26 27  0  0  0  0  0  0  0  0999 V2000
    1.0000    0.0000    0.0000 H   0  0  0  0  0
    2.5000    0.0000    0.0000 C   0  0  0  0  0
    2.9034    0.1217   -1.4396 C   0  0  0  0  0
    4.3999    0.1302   -1.5413 O   0  0  0  0  0
    4.8033    0.2519   -2.9809 P   0  0  0  0  0
    4.2639   -0.9208   -3.7449 O   0  0  0  0  0
    4.2352    1.5066   -3.5751 O   0  0  0  0  0
    6.2998    0.2605   -3.0825 O   0  0  0  0  0
    3.0599    1.1537    0.8679 O   0  0  0  0  0
    4.4904    0.6582    1.2094 C   0  0  0  0  0
    5.0630    1.3496    2.4111 H   0  0  0  0  0
    5.4454    0.9430    0.0883 N   0  0  0  0  0
    5.6831    2.2130   -0.3493 C   0  0  0  0  0
    6.5357    2.5149   -1.4050 C   0  0  0  0  0
    7.1970    1.4853   -2.0519 C   0  0  0  0  0
    6.9728    0.1835   -1.6264 C   0  0  0  0  0
    6.1070   -0.0449   -0.5735 C   0  0  0  0  0
    7.6631   -0.9640   -2.3022 C   0  0  0  0  0
    7.4153   -2.3680   -1.8361 O   0  0  0  0  0
    8.6013   -0.7075   -3.4442 O   0  0  0  0  0
    4.3235   -0.8601    1.4286 C   0  0  0  0  0
    4.1957   -1.1812    2.8882 H   0  0  0  0  0
    5.5233   -1.6057    0.9241 O   0  0  0  0  0
    3.0578   -1.2782    0.6595 C   0  0  0  0  0
    2.0467   -1.8906    1.5829 H   0  0  0  0  0
    3.3824   -2.3132   -0.3765 O   0  0  0  0  0
  1  2  1  0  0  0
  2 24  1  0  0  0
  2  9  1  0  0  0
  2  3  1  0  0  0
  3  4  1  0  0  0
  4  5  1  0  0  0
  5  8  1  0  0  0
  5  7  1  0  0  0
  5  6  2  0  0  0
  9 10  1  0  0  0
 10 21  1  0  0  0
 10 12  1  0  0  0
 10 11  1  0  0  0
 12 17  1  0  0  0
 12 13  2  0  0  0
 13 14  1  0  0  0
 14 15  2  0  0  0
 15 16  1  0  0  0
 16 17  2  0  0  0
 16 18  1  0  0  0
 18 20  1  0  0  0
 18 19  2  0  0  0
 21 24  1  0  0  0
 21 23  1  0  0  0
 21 22  1  0  0  0
 24 26  1  0  0  0
 24 25  1  0  0  0
M  CHG  1  12   1
M  END
> <SMILES>
[H]C2(COP(=O)(O)O)(OC([H])([N+]1=CC=CC(=C1)C(=O)O)C([H])(O)C2([H])(O))

> <NAME>
NICOTINATE_NUCLEOTIDE

> <BioCyc_link>
http://biocyc.org/HUMAN/NEW-IMAGE?object=NICOTINATE_NUCLEOTIDE

> <BioCyc_name_HTML>
nicotinate

> <CAS>
321-02-8

> <KEGG_ID>
C01185

> <toxTree.tree.cramer.CramerTreeResult>


> <FORMULA>


> <toxTree.tree.cramer.CramerRules>


$$$$
4-TRIMETHYLAMMONIOBUTANAL
 OpenBabel30120812303D

  9  8  0  0  0  0  0  0  0  0999 V2000
    1.0000    0.0000    0.0000 C   0  0  0  0  0
    2.5000    0.0000    0.0000 N   0  0  0  0  0
    2.9931   -0.6977    1.2329 C   0  0  0  0  0
    3.0193   -0.7348   -1.2002 C   0  0  0  0  0
    3.0007    1.4140    0.0000 C   0  0  0  0  0
    4.5007    1.4140    0.0000 C   0  0  0  0  0
    5.0014    2.8279    0.0000 C   0  0  0  0  0
    6.5014    2.8279    0.0000 C   0  0  0  0  0
    7.2514    4.1270    0.0000 O   0  0  0  0  0
  1  2  1  0  0  0
  2  5  1  0  0  0
  2  4  1  0  0  0
  2  3  1  0  0  0
  5  6  1  0  0  0
  6  7  1  0  0  0
  7  8  1  0  0  0
  8  9  2  0  0  0
M  CHG  1   2   1
M  END
> <SMILES>
C[N+](C)(C)CCCC=O

> <NAME>
4-TRIMETHYLAMMONIOBUTANAL

> <BioCyc_link>
http://biocyc.org/HUMAN/NEW-IMAGE?object=4-TRIMETHYLAMMONIOBUTANAL

> <BioCyc_name_HTML>
4-trimethylammoniobutanal

> <CAS>


> <KEGG_ID>
C01149

> <toxTree.tree.cramer.CramerTreeResult>


> <FORMULA>


> <toxTree.tree.cramer.CramerRules>


$$$$
NICOTINAMIDE_NUCLEOTIDE
 OpenBabel30120812303D

 26 27  0  0  0  0  0  0  0  0999 V2000
    1.0000    0.0000    0.0000 H   0  0  0  0  0
    2.5000    0.0000    0.0000 C   0  0  0  0  0
    2.9034    0.1217   -1.4396 O   0  0  0  0  0
    3.0599    1.1537    0.8679 C   0  0  0  0  0
    3.0416    2.4828    0.1728 H   0  0  0  0  0
    2.2387    1.3587    2.1063 O   0  0  0  0  0
    4.4904    0.6582    1.2094 C   0  0  0  0  0
    5.0630    1.3496    2.4111 H   0  0  0  0  0
    4.3235   -0.8601    1.4286 O   0  0  0  0  0
    3.0578   -1.2782    0.6595 C   0  0  0  0  0
    2.0467   -1.8906    1.5829 H   0  0  0  0  0
    3.3824   -2.3132   -0.3765 C   0  0  0  0  0
    2.1309   -2.6995   -1.1076 O   0  0  0  0  0
    2.4555   -3.7345   -2.1437 P   0  0  0  0  0
    3.4404   -3.1630   -3.1200 O   0  0  0  0  0
    3.0728   -4.9396   -1.4982 O   0  0  0  0  0
    1.2040   -4.1208   -2.8748 O   0  0  0  0  0
    5.4454    0.9430    0.0883 N   0  0  0  0  0
    5.6831    2.2130   -0.3493 C   0  0  0  0  0
    6.5357    2.5149   -1.4050 C   0  0  0  0  0
    7.1970    1.4853   -2.0519 C   0  0  0  0  0
    6.9728    0.1835   -1.6264 C   0  0  0  0  0
    6.1070   -0.0449   -0.5735 C   0  0  0  0  0
    7.6631   -0.9640   -2.3022 C   0  0  0  0  0
    7.4153   -2.3680   -1.8361 N   0  0  0  0  0
    8.6013   -0.7075   -3.4442 O   0  0  0  0  0
  1  2  1  0  0  0
  2 10  1  0  0  0
  2  4  1  0  0  0
  2  3  1  0  0  0
  4  7  1  0  0  0
  4  6  1  0  0  0
  4  5  1  0  0  0
  7  9  1  0  0  0
  7 18  1  0  0  0
  7  8  1  0  0  0
  9 10  1  0  0  0
 10 12  1  0  0  0
 10 11  1  0  0  0
 12 13  1  0  0  0
 13 14  1  0  0  0
 14 17  1  0  0  0
 14 16  1  0  0  0
 14 15  2  0  0  0
 18 23  1  0  0  0
 18 19  2  0  0  0
 19 20  1  0  0  0
 20 21  2  0  0  0
 21 22  1  0  0  0
 22 23  2  0  0  0
 22 24  1  0  0  0
 24 26  2  0  0  0
 24 25  1  0  0  0
M  CHG  2  17  -1  18   1
M  END
> <SMILES>
[H]C1(O)(C([H])(O)C([H])(OC1([H])(COP(=O)(O)[O-]))[N+]2=CC=CC(=C2)C(N)=O)

> <NAME>
NICOTINAMIDE_NUCLEOTIDE

> <BioCyc_link>
http://biocyc.org/HUMAN/NEW-IMAGE?object=NICOTINAMIDE_NUCLEOTIDE

> <BioCyc_name_HTML>
nicotinamide

> <CAS>
1094-61-7

> <KEGG_ID>
C00455

> <toxTree.tree.cramer.CramerTreeResult>


> <FORMULA>


> <toxTree.tree.cramer.CramerRules>


$$$$
DEAMIDO-NAD
 OpenBabel30120812303D

 52 56  0  0  0  0  0  0  0  0999 V2000
    1.0000    0.0000    0.0000 H   0  0  0  0  0
    2.5000    0.0000    0.0000 C   0  0  0  0  0
    2.9034    0.1217   -1.4396 C   0  0  0  0  0
    4.3999    0.1302   -1.5413 O   0  0  0  0  0
    4.8033    0.2519   -2.9809 P   0  0  0  0  0
    4.2639   -0.9208   -3.7449 O   0  0  0  0  0
    4.2352    1.5066   -3.5751 O   0  0  0  0  0
    6.2998    0.2605   -3.0825 O   0  0  0  0  0
    6.7032    0.3821   -4.5222 P   0  0  0  0  0
    6.1638   -0.7906   -5.2862 O   0  0  0  0  0
    6.1351    1.6368   -5.1164 O   0  0  0  0  0
    8.1997    0.3907   -4.6238 O   0  0  0  0  0
    8.6031    0.5124   -6.0634 C   0  0  0  0  0
   10.0996    0.5210   -6.1651 C   0  0  0  0  0
   10.4039    0.6580   -7.6275 H   0  0  0  0  0
   10.7112    1.6700   -5.3263 O   0  0  0  0  0
   12.1640    1.1796   -5.0871 C   0  0  0  0  0
   12.8132    1.8634   -3.9205 H   0  0  0  0  0
   13.0394    1.4800   -6.2676 N   0  0  0  0  0
   13.2259    2.7542   -6.7176 C   0  0  0  0  0
   13.9973    3.0709   -7.8299 C   0  0  0  0  0
   14.6275    2.0529   -8.5242 C   0  0  0  0  0
   14.4542    0.7470   -8.0872 C   0  0  0  0  0
   13.6682    0.5036   -6.9767 C   0  0  0  0  0
   15.1131   -0.3885   -8.8128 C   0  0  0  0  0
   14.9206   -1.7969   -8.3340 O   0  0  0  0  0
   15.9645   -0.1156  -10.0172 O   0  0  0  0  0
   12.0201   -0.3415   -4.8714 C   0  0  0  0  0
   11.9931   -0.6765   -3.4096 H   0  0  0  0  0
   13.1867   -1.0756   -5.4630 O   0  0  0  0  0
   10.7073   -0.7599   -5.5569 C   0  0  0  0  0
    9.7642   -1.3864   -4.5730 H   0  0  0  0  0
   10.9662   -1.7836   -6.6222 O   0  0  0  0  0
    3.0599    1.1537    0.8679 O   0  0  0  0  0
    4.4904    0.6582    1.2094 C   0  0  0  0  0
    5.0630    1.3496    2.4111 H   0  0  0  0  0
    5.4454    0.9430    0.0883 N   0  0  0  0  0
    6.1375    0.0329   -0.6155 C   0  0  0  0  0
    6.9010    0.6737   -1.5995 N   0  0  0  0  0
    6.6943    1.9723   -1.5194 C   0  0  0  0  0
    7.1824    3.1454   -2.2447 C   0  0  0  0  0
    8.1503    3.0122   -3.3829 N   0  0  0  0  0
    6.7152    4.3825   -1.8381 N   0  0  0  0  0
    5.8084    4.4812   -0.7884 C   0  0  0  0  0
    5.3597    3.4468   -0.1271 N   0  0  0  0  0
    5.7422    2.1921   -0.4204 C   0  0  0  0  0
    4.3235   -0.8601    1.4286 C   0  0  0  0  0
    4.1957   -1.1812    2.8882 H   0  0  0  0  0
    5.5233   -1.6057    0.9241 O   0  0  0  0  0
    3.0578   -1.2782    0.6595 C   0  0  0  0  0
    2.0467   -1.8906    1.5829 H   0  0  0  0  0
    3.3824   -2.3132   -0.3765 O   0  0  0  0  0
  1  2  1  0  0  0
  2 50  1  0  0  0
  2 34  1  0  0  0
  2  3  1  0  0  0
  3  4  1  0  0  0
  4  5  1  0  0  0
  5  8  1  0  0  0
  5  7  1  0  0  0
  5  6  2  0  0  0
  8  9  1  0  0  0
  9 12  1  0  0  0
  9 11  1  0  0  0
  9 10  2  0  0  0
 12 13  1  0  0  0
 13 14  1  0  0  0
 14 31  1  0  0  0
 14 16  1  0  0  0
 14 15  1  0  0  0
 16 17  1  0  0  0
 17 28  1  0  0  0
 17 19  1  0  0  0
 17 18  1  0  0  0
 19 24  1  0  0  0
 19 20  2  0  0  0
 20 21  1  0  0  0
 21 22  2  0  0  0
 22 23  1  0  0  0
 23 24  2  0  0  0
 23 25  1  0  0  0
 25 27  1  0  0  0
 25 26  2  0  0  0
 28 31  1  0  0  0
 28 30  1  0  0  0
 28 29  1  0  0  0
 31 33  1  0  0  0
 31 32  1  0  0  0
 34 35  1  0  0  0
 35 47  1  0  0  0
 35 37  1  0  0  0
 35 36  1  0  0  0
 37 46  1  0  0  0
 37 38  1  0  0  0
 38 39  2  0  0  0
 39 40  1  0  0  0
 40 46  2  0  0  0
 40 41  1  0  0  0
 41 43  2  0  0  0
 41 42  1  0  0  0
 43 44  1  0  0  0
 44 45  2  0  0  0
 45 46  1  0  0  0
 47 50  1  0  0  0
 47 49  1  0  0  0
 47 48  1  0  0  0
 50 52  1  0  0  0
 50 51  1  0  0  0
M  CHG  1  19   1
M  END
> <SMILES>
[H]C5(COP(=O)(O)OP(=O)(O)OCC2([H])(OC([H])([N+]1=CC=CC(=C1)C(=O)O)C([H])(O)C2([H])(O)))(OC([H])(N4C=NC=3C(N)=NC=NC=34)C([H])(O)C5([H])(O))

> <NAME>
DEAMIDO-NAD

> <BioCyc_link>
http://biocyc.org/HUMAN/NEW-IMAGE?object=DEAMIDO-NAD

> <BioCyc_name_HTML>
nicotinate

> <CAS>
6450-77-7

> <KEGG_ID>
C00857

> <toxTree.tree.cramer.CramerTreeResult>


> <FORMULA>


> <toxTree.tree.cramer.CramerRules>


$$$$
ACETYLCHOLINE
 OpenBabel30120812303D

 10  9  0  0  0  0  0  0  0  0999 V2000
    1.0000    0.0000    0.0000 C   0  0  0  0  0
    2.5000    0.0000    0.0000 C   0  0  0  0  0
    3.2500   -1.2990    0.0000 O   0  0  0  0  0
    3.2500    1.2990    0.0000 O   0  0  0  0  0
    4.7500    1.2990    0.0000 C   0  0  0  0  0
    5.2507    2.7130    0.0000 C   0  0  0  0  0
    6.7507    2.7130    0.0000 N   0  0  0  0  0
    7.2438    2.0153    1.2329 C   0  0  0  0  0
    7.2700    1.9782   -1.2002 C   0  0  0  0  0
    7.2514    4.1270    0.0000 C   0  0  0  0  0
  1  2  1  0  0  0
  2  4  1  0  0  0
  2  3  2  0  0  0
  4  5  1  0  0  0
  5  6  1  0  0  0
  6  7  1  0  0  0
  7 10  1  0  0  0
  7  9  1  0  0  0
  7  8  1  0  0  0
M  CHG  1   7   1
M  END
> <SMILES>
CC(=O)OCC[N+](C)(C)C

> <NAME>
ACETYLCHOLINE

> <BioCyc_link>
http://biocyc.org/HUMAN/NEW-IMAGE?object=ACETYLCHOLINE

> <BioCyc_name_HTML>
acetylcholine

> <CAS>
51-84-3

> <KEGG_ID>
C01996

> <toxTree.tree.cramer.CramerTreeResult>


> <FORMULA>


> <toxTree.tree.cramer.CramerRules>


$$$$
BETAINE
 OpenBabel30120812303D

  8  7  0  0  0  0  0  0  0  0999 V2000
    1.0000    0.0000    0.0000 C   0  0  0  0  0
    2.5000    0.0000    0.0000 N   0  0  0  0  0
    2.9931   -0.6977    1.2329 C   0  0  0  0  0
    3.0193   -0.7348   -1.2002 C   0  0  0  0  0
    3.0007    1.4140    0.0000 C   0  0  0  0  0
    4.5007    1.4140    0.0000 C   0  0  0  0  0
    5.2507    0.1149    0.0000 O   0  0  0  0  0
    5.2507    2.7130    0.0000 O   0  0  0  0  0
  1  2  1  0  0  0
  2  5  1  0  0  0
  2  4  1  0  0  0
  2  3  1  0  0  0
  5  6  1  0  0  0
  6  8  1  0  0  0
  6  7  2  0  0  0
M  CHG  2   2   1   8  -1
M  END
> <SMILES>
C[N+](C)(C)CC(=O)[O-]

> <NAME>
BETAINE

> <BioCyc_link>
http://biocyc.org/HUMAN/NEW-IMAGE?object=BETAINE

> <BioCyc_name_HTML>
glycine

> <CAS>
107-43-7

> <KEGG_ID>
C00719

> <toxTree.tree.cramer.CramerTreeResult>


> <FORMULA>


> <toxTree.tree.cramer.CramerRules>


$$$$
BETAINE_ALDEHYDE
 OpenBabel30120812303D

  7  6  0  0  0  0  0  0  0  0999 V2000
    1.0000    0.0000    0.0000 C   0  0  0  0  0
    2.5000    0.0000    0.0000 N   0  0  0  0  0
    2.9931   -0.6977    1.2329 C   0  0  0  0  0
    3.0193   -0.7348   -1.2002 C   0  0  0  0  0
    3.0007    1.4140    0.0000 C   0  0  0  0  0
    4.5007    1.4140    0.0000 C   0  0  0  0  0
    5.2507    2.7130    0.0000 O   0  0  0  0  0
  1  2  1  0  0  0
  2  5  1  0  0  0
  2  4  1  0  0  0
  2  3  1  0  0  0
  5  6  1  0  0  0
  6  7  2  0  0  0
M  CHG  1   2   1
M  END
> <SMILES>
C[N+](C)(C)CC=O

> <NAME>
BETAINE_ALDEHYDE

> <BioCyc_link>
http://biocyc.org/HUMAN/NEW-IMAGE?object=BETAINE_ALDEHYDE

> <BioCyc_name_HTML>
betaine

> <CAS>
7418-61-3

> <KEGG_ID>
C00576

> <toxTree.tree.cramer.CramerTreeResult>


> <FORMULA>


> <toxTree.tree.cramer.CramerRules>


$$$$
CHOLINE
 OpenBabel30120812303D

  7  6  0  0  0  0  0  0  0  0999 V2000
    1.0000    0.0000    0.0000 C   0  0  0  0  0
    2.5000    0.0000    0.0000 N   0  0  0  0  0
    2.9931   -0.6977    1.2329 C   0  0  0  0  0
    3.0193   -0.7348   -1.2002 C   0  0  0  0  0
    3.0007    1.4140    0.0000 C   0  0  0  0  0
    4.5007    1.4140    0.0000 C   0  0  0  0  0
    5.0014    2.8279    0.0000 O   0  0  0  0  0
  1  2  1  0  0  0
  2  5  1  0  0  0
  2  4  1  0  0  0
  2  3  1  0  0  0
  5  6  1  0  0  0
  6  7  1  0  0  0
M  CHG  1   2   1
M  END
> <SMILES>
C[N+](C)(C)CCO

> <NAME>
CHOLINE

> <BioCyc_link>
http://biocyc.org/HUMAN/NEW-IMAGE?object=CHOLINE

> <BioCyc_name_HTML>
choline

> <CAS>
123-41-1

> <KEGG_ID>
C00114

> <toxTree.tree.cramer.CramerTreeResult>


> <FORMULA>


> <toxTree.tree.cramer.CramerRules>


$$$$
5-10-METHENYL-THF
 OpenBabel30120812303D

 34 37  0  0  0  0  0  0  0  0999 V2000
    1.0000    0.0000    0.0000 H   0  0  0  0  0
    2.5000    0.0000    0.0000 C   0  0  0  0  0
    2.9931   -0.6977    1.2329 C   0  0  0  0  0
    2.4869    0.0185    2.4498 C   0  0  0  0  0
    2.9800   -0.6792    3.6827 C   0  0  0  0  0
    3.8428   -1.9000    3.5593 O   0  0  0  0  0
    2.6103   -0.1561    5.0391 O   0  0  0  0  0
    3.0193   -0.7348   -1.2002 N   0  0  0  0  0
    2.6508   -2.1726   -1.4167 C   0  0  0  0  0
    1.7630   -2.8756   -0.4330 O   0  0  0  0  0
    3.1701   -2.9074   -2.6168 C   0  0  0  0  0
    2.9289   -4.2637   -2.6817 C   0  0  0  0  0
    3.2603   -4.9749   -3.8367 C   0  0  0  0  0
    3.8289   -4.3050   -4.9213 C   0  0  0  0  0
    4.0593   -2.9475   -4.8456 C   0  0  0  0  0
    3.7285   -2.2483   -3.6977 C   0  0  0  0  0
    4.1884   -5.0602   -6.1665 N   0  0  0  0  0
    4.4507   -6.5292   -6.3035 C   0  0  0  0  0
    4.5540   -6.7892   -7.6093 C   0  0  0  0  0
    4.8118   -8.0700   -8.2868 C   0  0  0  0  0
    3.9646   -8.1141   -9.5674 N   0  0  0  0  0
    4.2529   -6.9062  -10.4225 C   0  0  0  0  0
    4.3244   -7.0062  -11.7910 N   0  0  0  0  0
    4.5424   -5.8686  -12.5615 C   0  0  0  0  0
    4.6163   -5.9853  -14.0551 N   0  0  0  0  0
    4.6930   -4.6194  -11.9569 N   0  0  0  0  0
    4.6335   -4.5069  -10.5796 C   0  0  0  0  0
    4.7959   -3.1687   -9.9218 O   0  0  0  0  0
    4.4215   -5.6476   -9.8091 C   0  0  0  0  0
    4.3665   -5.6138   -8.3416 N   0  0  0  0  0
    4.1496   -4.5518   -7.4874 C   0  0  0  0  0
    3.0007    1.4140    0.0000 C   0  0  0  0  0
    2.0265    2.5546    0.0000 O   0  0  0  0  0
    4.4756    1.6873    0.0000 O   0  0  0  0  0
  1  2  1  0  0  0
  2 32  1  0  0  0
  2  8  1  0  0  0
  2  3  1  0  0  0
  3  4  1  0  0  0
  4  5  1  0  0  0
  5  7  1  0  0  0
  5  6  2  0  0  0
  8  9  1  0  0  0
  9 11  1  0  0  0
  9 10  2  0  0  0
 11 16  1  0  0  0
 11 12  2  0  0  0
 12 13  1  0  0  0
 13 14  2  0  0  0
 14 15  1  0  0  0
 14 17  1  0  0  0
 15 16  2  0  0  0
 17 18  1  0  0  0
 17 31  1  0  0  0
 18 19  1  0  0  0
 19 20  1  0  0  0
 19 30  1  0  0  0
 20 21  1  0  0  0
 21 22  1  0  0  0
 22 23  1  0  0  0
 22 29  2  0  0  0
 23 24  2  0  0  0
 24 26  1  0  0  0
 24 25  1  0  0  0
 26 27  1  0  0  0
 27 29  1  0  0  0
 27 28  2  0  0  0
 29 30  1  0  0  0
 30 31  2  0  0  0
 32 34  1  0  0  0
 32 33  2  0  0  0
M  CHG  1  30   1
M  END
> <SMILES>
[H]C(CCC(=O)O)(NC(=O)C1=CC=C(C=C1)N3CC4CNC=2N=C(N)NC(=O)C=2[N+]4(=C3))C(=O)O

> <NAME>
5-10-METHENYL-THF

> <BioCyc_link>
http://biocyc.org/HUMAN/NEW-IMAGE?object=5-10-METHENYL-THF

> <BioCyc_name_HTML>
5,10-methenyltetrahydrofolate

> <CAS>
7444-29-3

> <KEGG_ID>
C00445

> <toxTree.tree.cramer.CramerTreeResult>


> <FORMULA>


> <toxTree.tree.cramer.CramerRules>


$$$$
L-1-GLYCERO-PHOSPHORYLCHOLINE
 OpenBabel30120812303D

 17 16  0  0  0  0  0  0  0  0999 V2000
    1.0000    0.0000    0.0000 H   0  0  0  0  0
    2.5000    0.0000    0.0000 C   0  0  0  0  0
    2.9931   -0.6977    1.2329 O   0  0  0  0  0
    3.0193   -0.7348   -1.2002 C   0  0  0  0  0
    2.5089   -2.1452   -1.1833 O   0  0  0  0  0
    3.0007    1.4140    0.0000 C   0  0  0  0  0
    4.5007    1.4140    0.0000 O   0  0  0  0  0
    5.0014    2.8279    0.0000 P   0  0  0  0  0
    4.5083    3.5256   -1.2329 O   0  0  0  0  0
    4.4821    3.5627    1.2002 O   0  0  0  0  0
    6.5014    2.8279    0.0000 O   0  0  0  0  0
    7.0021    4.2419    0.0000 C   0  0  0  0  0
    8.5021    4.2419    0.0000 C   0  0  0  0  0
    9.0028    5.6558    0.0000 N   0  0  0  0  0
    8.5098    6.3535   -1.2329 C   0  0  0  0  0
    8.4835    6.3907    1.2002 C   0  0  0  0  0
   10.5028    5.6558    0.0000 C   0  0  0  0  0
  1  2  1  0  0  0
  2  6  1  0  0  0
  2  4  1  0  0  0
  2  3  1  0  0  0
  4  5  1  0  0  0
  6  7  1  0  0  0
  7  8  1  0  0  0
  8 11  1  0  0  0
  8 10  1  0  0  0
  8  9  2  0  0  0
 11 12  1  0  0  0
 12 13  1  0  0  0
 13 14  1  0  0  0
 14 17  1  0  0  0
 14 16  1  0  0  0
 14 15  1  0  0  0
M  CHG  1  14   1
M  END
> <SMILES>
[H]C(O)(CO)COP(=O)(O)OCC[N+](C)(C)C

> <NAME>
L-1-GLYCERO-PHOSPHORYLCHOLINE

> <BioCyc_link>
http://biocyc.org/HUMAN/NEW-IMAGE?object=L-1-GLYCERO-PHOSPHORYLCHOLINE

> <BioCyc_name_HTML>
L-1-glycero-3-phosphocholine

> <CAS>


> <KEGG_ID>
C00670

> <toxTree.tree.cramer.CramerTreeResult>


> <FORMULA>


> <toxTree.tree.cramer.CramerRules>


$$$$
3-HYDROXY-N6N6N6-TRIMETHYL-L-LYSINE
 OpenBabel30120812303D

 15 14  0  0  0  0  0  0  0  0999 V2000
    1.0000    0.0000    0.0000 H   0  0  0  0  0
    2.5000    0.0000    0.0000 C   0  0  0  0  0
    2.9931   -0.6977    1.2329 N   0  0  0  0  0
    3.0193   -0.7348   -1.2002 C   0  0  0  0  0
    3.9071   -0.0318   -2.1838 O   0  0  0  0  0
    2.6508   -2.1726   -1.4167 O   0  0  0  0  0
    3.0007    1.4140    0.0000 C   0  0  0  0  0
    2.4814    2.1488    1.2002 O   0  0  0  0  0
    4.5007    1.4140    0.0000 C   0  0  0  0  0
    5.0014    2.8279    0.0000 C   0  0  0  0  0
    6.5014    2.8279    0.0000 C   0  0  0  0  0
    7.0021    4.2419    0.0000 N   0  0  0  0  0
    6.5090    4.9396   -1.2329 C   0  0  0  0  0
    6.4828    4.9767    1.2002 C   0  0  0  0  0
    8.5021    4.2419    0.0000 C   0  0  0  0  0
  1  2  1  0  0  0
  2  7  1  0  0  0
  2  4  1  0  0  0
  2  3  1  0  0  0
  4  6  1  0  0  0
  4  5  2  0  0  0
  7  9  1  0  0  0
  7  8  1  0  0  0
  9 10  1  0  0  0
 10 11  1  0  0  0
 11 12  1  0  0  0
 12 15  1  0  0  0
 12 14  1  0  0  0
 12 13  1  0  0  0
M  CHG  1  12   1
M  END
> <SMILES>
[H]C(N)(C(=O)O)C(O)CCC[N+](C)(C)C

> <NAME>
3-HYDROXY-N6N6N6-TRIMETHYL-L-LYSINE

> <BioCyc_link>
http://biocyc.org/HUMAN/NEW-IMAGE?object=3-HYDROXY-N6N6N6-TRIMETHYL-L-LYSINE

> <BioCyc_name_HTML>
3-hydroxy-N6,N6,N6-trimethyl-L-lysine

> <CAS>


> <KEGG_ID>
C01259

> <toxTree.tree.cramer.CramerTreeResult>


> <FORMULA>


> <toxTree.tree.cramer.CramerRules>


$$$$
N6N6N6-TRIMETHYL-L-LYSINE
 OpenBabel30120812303D

 14 13  0  0  0  0  0  0  0  0999 V2000
    1.0000    0.0000    0.0000 H   0  0  0  0  0
    2.5000    0.0000    0.0000 C   0  0  0  0  0
    2.9931   -0.6977    1.2329 N   0  0  0  0  0
    3.0193   -0.7348   -1.2002 C   0  0  0  0  0
    2.5089   -2.1452   -1.1833 C   0  0  0  0  0
    3.0282   -2.8800   -2.3834 C   0  0  0  0  0
    2.5178   -4.2904   -2.3666 C   0  0  0  0  0
    3.0371   -5.0252   -3.5667 N   0  0  0  0  0
    2.5540   -4.3409   -4.8110 C   0  0  0  0  0
    4.5371   -5.0158   -3.5725 C   0  0  0  0  0
    2.5267   -6.4356   -3.5499 C   0  0  0  0  0
    3.0007    1.4140    0.0000 C   0  0  0  0  0
    2.0265    2.5546    0.0000 O   0  0  0  0  0
    4.4756    1.6873    0.0000 O   0  0  0  0  0
  1  2  1  0  0  0
  2 12  1  0  0  0
  2  4  1  0  0  0
  2  3  1  0  0  0
  4  5  1  0  0  0
  5  6  1  0  0  0
  6  7  1  0  0  0
  7  8  1  0  0  0
  8 11  1  0  0  0
  8 10  1  0  0  0
  8  9  1  0  0  0
 12 14  1  0  0  0
 12 13  2  0  0  0
M  CHG  2   8   1  14  -1
M  END
> <SMILES>
[H]C(N)(CCCC[N+](C)(C)C)C(=O)[O-]

> <NAME>
N6N6N6-TRIMETHYL-L-LYSINE

> <BioCyc_link>
http://biocyc.org/HUMAN/NEW-IMAGE?object=N6N6N6-TRIMETHYL-L-LYSINE

> <BioCyc_name_HTML>
N6,N6,N6-trimethyl-L-lysine

> <CAS>


> <KEGG_ID>
C03793

> <toxTree.tree.cramer.CramerTreeResult>


> <FORMULA>


> <toxTree.tree.cramer.CramerRules>


$$$$
CPD-396
 OpenBabel30120812303D

 10 10  0  0  0  0  0  0  0  0999 V2000
    1.0000    0.0000    0.0000 C   0  0  0  0  0
    2.5000    0.0000    0.0000 N   0  0  0  0  0
    3.2250    1.1556    0.0015 C   0  0  0  0  0
    4.6146    1.1907   -0.0045 C   0  0  0  0  0
    5.3183   -0.0012    0.0001 C   0  0  0  0  0
    4.6048   -1.1916   -0.0014 C   0  0  0  0  0
    3.2231   -1.1526   -0.0015 C   0  0  0  0  0
    5.3256   -2.5070   -0.0030 C   0  0  0  0  0
    4.5469   -3.7890   -0.0046 N   0  0  0  0  0
    6.8253   -2.5404   -0.0029 O   0  0  0  0  0
  1  2  1  0  0  0
  2  7  1  0  0  0
  2  3  2  0  0  0
  3  4  1  0  0  0
  4  5  2  0  0  0
  5  6  1  0  0  0
  6  7  2  0  0  0
  6  8  1  0  0  0
  8 10  2  0  0  0
  8  9  1  0  0  0
M  CHG  1   2   1
M  END
> <SMILES>
C[N+]1=CC=CC(=C1)C(N)=O

> <NAME>
CPD-396

> <BioCyc_link>
http://biocyc.org/HUMAN/NEW-IMAGE?object=CPD-396

> <BioCyc_name_HTML>
1-methylnicotinamide

> <CAS>


> <KEGG_ID>
C02918

> <toxTree.tree.cramer.CramerTreeResult>


> <FORMULA>


> <toxTree.tree.cramer.CramerRules>


$$$$
CPD-611
 OpenBabel30120812303D

 30 31  0  0  0  0  0  0  0  0999 V2000
    1.0000    0.0000    0.0000 C   0  0  0  0  0
    2.5000    0.0000    0.0000 C   0  0  0  0  0
    3.1879   -1.1952   -0.0000 N   0  0  0  0  0
    4.5842   -1.1944    0.0121 C   0  0  0  0  0
    5.2744    0.0187    0.0181 C   0  0  0  0  0
    6.7743    0.0301    0.0312 C   0  0  0  0  0
    7.2643    1.4478    0.0354 N   0  0  0  0  0
    6.4601    2.5942    0.0432 C   0  0  0  0  0
    7.2728    3.6721    0.0354 S   0  0  0  0  0
    8.5504    3.2245    0.0324 C   0  0  0  0  0
    9.7842    4.0776    0.0293 C   0  0  0  0  0
   11.0002    3.1993    0.0265 C   0  0  0  0  0
   12.2340    4.0524    0.0234 O   0  0  0  0  0
   13.4500    3.1741    0.0206 P   0  0  0  0  0
   13.4442    2.3199    1.2536 O   0  0  0  0  0
   13.4378    2.2743   -1.1795 O   0  0  0  0  0
   14.6838    4.0271    0.0176 O   0  0  0  0  0
   15.8998    3.1489    0.0147 P   0  0  0  0  0
   15.8939    2.2946    1.2477 O   0  0  0  0  0
   15.8876    2.2490   -1.1854 O   0  0  0  0  0
   17.1336    4.0019    0.0117 O   0  0  0  0  0
   18.3496    3.1236    0.0088 P   0  0  0  0  0
   18.3437    2.2694    1.2418 O   0  0  0  0  0
   18.3374    2.2238   -1.1913 O   0  0  0  0  0
   19.5834    3.9767    0.0058 O   0  0  0  0  0
    8.5168    1.8264    0.0325 C   0  0  0  0  0
    9.7104    0.9178    0.0298 C   0  0  0  0  0
    4.5744    1.2069    0.0121 C   0  0  0  0  0
    5.3151    2.5113    0.0185 N   0  0  0  0  0
    3.1903    1.1993    0.0000 N   0  0  0  0  0
  1  2  1  0  0  0
  2 30  1  0  0  0
  2  3  2  0  0  0
  3  4  1  0  0  0
  4  5  2  0  0  0
  5 28  1  0  0  0
  5  6  1  0  0  0
  6  7  1  0  0  0
  7 26  1  0  0  0
  7  8  2  0  0  0
  8  9  1  0  0  0
  9 10  1  0  0  0
 10 26  2  0  0  0
 10 11  1  0  0  0
 11 12  1  0  0  0
 12 13  1  0  0  0
 13 14  1  0  0  0
 14 17  1  0  0  0
 14 16  1  0  0  0
 14 15  2  0  0  0
 17 18  1  0  0  0
 18 21  1  0  0  0
 18 20  1  0  0  0
 18 19  2  0  0  0
 21 22  1  0  0  0
 22 25  1  0  0  0
 22 24  1  0  0  0
 22 23  2  0  0  0
 26 27  1  0  0  0
 28 30  2  0  0  0
 28 29  1  0  0  0
M  CHG  1   7   1
M  END
> <SMILES>
CC2=NC=C(C[N+]1=CSC(CCOP(=O)(O)OP(=O)(O)OP(=O)(O)O)=C1(C))C(N)=N2

> <NAME>
CPD-611

> <BioCyc_link>
http://biocyc.org/HUMAN/NEW-IMAGE?object=CPD-611

> <BioCyc_name_HTML>
thiamin

> <CAS>
15666-52-1

> <KEGG_ID>
C03028

> <toxTree.tree.cramer.CramerTreeResult>


> <FORMULA>


> <toxTree.tree.cramer.CramerRules>


$$$$
NADP
 OpenBabel30120812303D

 56 60  0  0  0  0  0  0  0  0999 V2000
    1.0000    0.0000    0.0000 H   0  0  0  0  0
    2.5000    0.0000    0.0000 C   0  0  0  0  0
    2.9034    0.1217   -1.4396 C   0  0  0  0  0
    4.3999    0.1302   -1.5413 O   0  0  0  0  0
    4.8033    0.2519   -2.9809 P   0  0  0  0  0
    4.2639   -0.9208   -3.7449 O   0  0  0  0  0
    4.2352    1.5066   -3.5751 O   0  0  0  0  0
    6.2998    0.2605   -3.0825 O   0  0  0  0  0
    6.7032    0.3821   -4.5222 P   0  0  0  0  0
    6.1638   -0.7906   -5.2862 O   0  0  0  0  0
    6.1351    1.6368   -5.1164 O   0  0  0  0  0
    8.1997    0.3907   -4.6238 O   0  0  0  0  0
    8.6031    0.5124   -6.0634 C   0  0  0  0  0
   10.0996    0.5210   -6.1651 C   0  0  0  0  0
   10.4039    0.6580   -7.6275 H   0  0  0  0  0
   10.7112    1.6700   -5.3263 O   0  0  0  0  0
   12.1640    1.1796   -5.0871 C   0  0  0  0  0
   12.8132    1.8634   -3.9205 H   0  0  0  0  0
   13.0394    1.4800   -6.2676 N   0  0  0  0  0
   13.2259    2.7542   -6.7176 C   0  0  0  0  0
   13.9973    3.0709   -7.8299 C   0  0  0  0  0
   14.6275    2.0529   -8.5242 C   0  0  0  0  0
   14.4542    0.7470   -8.0872 C   0  0  0  0  0
   13.6682    0.5036   -6.9767 C   0  0  0  0  0
   15.1131   -0.3885   -8.8128 C   0  0  0  0  0
   14.9206   -1.7969   -8.3340 N   0  0  0  0  0
   15.9645   -0.1156  -10.0172 O   0  0  0  0  0
   12.0201   -0.3415   -4.8714 C   0  0  0  0  0
   11.9931   -0.6765   -3.4096 H   0  0  0  0  0
   13.1867   -1.0756   -5.4630 O   0  0  0  0  0
   10.7073   -0.7599   -5.5569 C   0  0  0  0  0
    9.7642   -1.3864   -4.5730 H   0  0  0  0  0
   10.9662   -1.7836   -6.6222 O   0  0  0  0  0
    3.0599    1.1537    0.8679 O   0  0  0  0  0
    4.4904    0.6582    1.2094 C   0  0  0  0  0
    5.0630    1.3496    2.4111 H   0  0  0  0  0
    5.4454    0.9430    0.0883 N   0  0  0  0  0
    6.1375    0.0329   -0.6155 C   0  0  0  0  0
    6.9010    0.6737   -1.5995 N   0  0  0  0  0
    6.6943    1.9723   -1.5194 C   0  0  0  0  0
    7.1824    3.1454   -2.2447 C   0  0  0  0  0
    8.1503    3.0122   -3.3829 N   0  0  0  0  0
    6.7152    4.3825   -1.8381 N   0  0  0  0  0
    5.8084    4.4812   -0.7884 C   0  0  0  0  0
    5.3597    3.4468   -0.1271 N   0  0  0  0  0
    5.7422    2.1921   -0.4204 C   0  0  0  0  0
    4.3235   -0.8601    1.4286 C   0  0  0  0  0
    4.1957   -1.1812    2.8882 H   0  0  0  0  0
    5.5233   -1.6057    0.9241 O   0  0  0  0  0
    5.3310   -3.0759    1.1509 P   0  0  0  0  0
    5.1736   -3.3316    2.6206 O   0  0  0  0  0
    4.0922   -3.5516    0.4517 O   0  0  0  0  0
    6.5309   -3.8215    0.6465 O   0  0  0  0  0
    3.0578   -1.2782    0.6595 C   0  0  0  0  0
    2.0467   -1.8906    1.5829 H   0  0  0  0  0
    3.3824   -2.3132   -0.3765 O   0  0  0  0  0
  1  2  1  0  0  0
  2 54  1  0  0  0
  2 34  1  0  0  0
  2  3  1  0  0  0
  3  4  1  0  0  0
  4  5  1  0  0  0
  5  8  1  0  0  0
  5  7  1  0  0  0
  5  6  2  0  0  0
  8  9  1  0  0  0
  9 12  1  0  0  0
  9 11  1  0  0  0
  9 10  2  0  0  0
 12 13  1  0  0  0
 13 14  1  0  0  0
 14 31  1  0  0  0
 14 16  1  0  0  0
 14 15  1  0  0  0
 16 17  1  0  0  0
 17 28  1  0  0  0
 17 19  1  0  0  0
 17 18  1  0  0  0
 19 24  1  0  0  0
 19 20  2  0  0  0
 20 21  1  0  0  0
 21 22  2  0  0  0
 22 23  1  0  0  0
 23 24  2  0  0  0
 23 25  1  0  0  0
 25 27  2  0  0  0
 25 26  1  0  0  0
 28 31  1  0  0  0
 28 30  1  0  0  0
 28 29  1  0  0  0
 31 33  1  0  0  0
 31 32  1  0  0  0
 34 35  1  0  0  0
 35 47  1  0  0  0
 35 37  1  0  0  0
 35 36  1  0  0  0
 37 46  1  0  0  0
 37 38  1  0  0  0
 38 39  2  0  0  0
 39 40  1  0  0  0
 40 46  2  0  0  0
 40 41  1  0  0  0
 41 43  2  0  0  0
 41 42  1  0  0  0
 43 44  1  0  0  0
 44 45  2  0  0  0
 45 46  1  0  0  0
 47 54  1  0  0  0
 47 49  1  0  0  0
 47 48  1  0  0  0
 49 50  1  0  0  0
 50 53  1  0  0  0
 50 52  1  0  0  0
 50 51  2  0  0  0
 54 56  1  0  0  0
 54 55  1  0  0  0
M  CHG  1  19   1
M  END
> <SMILES>
[H]C5(COP(=O)(O)OP(=O)(O)OCC2([H])(OC([H])([N+]1=CC=CC(=C1)C(N)=O)C([H])(O)C2([H])(O)))(OC([H])(N4C=NC=3C(N)=NC=NC=34)C([H])(OP(=O)(O)O)C5([H])(O))

> <NAME>
NADP

> <BioCyc_link>
http://biocyc.org/HUMAN/NEW-IMAGE?object=NADP

> <BioCyc_name_HTML>
NADP<sup>+</sup>

> <CAS>
53-59-8

> <KEGG_ID>
C00006

> <toxTree.tree.cramer.CramerTreeResult>


> <FORMULA>


> <toxTree.tree.cramer.CramerRules>


$$$$
NAD
 OpenBabel30120812303D

 52 56  0  0  0  0  0  0  0  0999 V2000
    1.0000    0.0000    0.0000 H   0  0  0  0  0
    2.5000    0.0000    0.0000 C   0  0  0  0  0
    2.9034    0.1217   -1.4396 C   0  0  0  0  0
    4.3999    0.1302   -1.5413 O   0  0  0  0  0
    4.8033    0.2519   -2.9809 P   0  0  0  0  0
    4.2639   -0.9208   -3.7449 O   0  0  0  0  0
    4.2352    1.5066   -3.5751 O   0  0  0  0  0
    6.2998    0.2605   -3.0825 O   0  0  0  0  0
    6.7032    0.3821   -4.5222 P   0  0  0  0  0
    6.1638   -0.7906   -5.2862 O   0  0  0  0  0
    6.1351    1.6368   -5.1164 O   0  0  0  0  0
    8.1997    0.3907   -4.6238 O   0  0  0  0  0
    8.6031    0.5124   -6.0634 C   0  0  0  0  0
   10.0996    0.5210   -6.1651 C   0  0  0  0  0
   10.4039    0.6580   -7.6275 H   0  0  0  0  0
   10.7112    1.6700   -5.3263 O   0  0  0  0  0
   12.1640    1.1796   -5.0871 C   0  0  0  0  0
   12.8132    1.8634   -3.9205 H   0  0  0  0  0
   13.0394    1.4800   -6.2676 N   0  0  0  0  0
   13.2259    2.7542   -6.7176 C   0  0  0  0  0
   13.9973    3.0709   -7.8299 C   0  0  0  0  0
   14.6275    2.0529   -8.5242 C   0  0  0  0  0
   14.4542    0.7470   -8.0872 C   0  0  0  0  0
   13.6682    0.5036   -6.9767 C   0  0  0  0  0
   15.1131   -0.3885   -8.8128 C   0  0  0  0  0
   14.9206   -1.7969   -8.3340 N   0  0  0  0  0
   15.9645   -0.1156  -10.0172 O   0  0  0  0  0
   12.0201   -0.3415   -4.8714 C   0  0  0  0  0
   11.9931   -0.6765   -3.4096 H   0  0  0  0  0
   13.1867   -1.0756   -5.4630 O   0  0  0  0  0
   10.7073   -0.7599   -5.5569 C   0  0  0  0  0
    9.7642   -1.3864   -4.5730 H   0  0  0  0  0
   10.9662   -1.7836   -6.6222 O   0  0  0  0  0
    3.0599    1.1537    0.8679 O   0  0  0  0  0
    4.4904    0.6582    1.2094 C   0  0  0  0  0
    5.0630    1.3496    2.4111 H   0  0  0  0  0
    5.4454    0.9430    0.0883 N   0  0  0  0  0
    6.1375    0.0329   -0.6155 C   0  0  0  0  0
    6.9010    0.6737   -1.5995 N   0  0  0  0  0
    6.6943    1.9723   -1.5194 C   0  0  0  0  0
    7.1824    3.1454   -2.2447 C   0  0  0  0  0
    8.1503    3.0122   -3.3829 N   0  0  0  0  0
    6.7152    4.3825   -1.8381 N   0  0  0  0  0
    5.8084    4.4812   -0.7884 C   0  0  0  0  0
    5.3597    3.4468   -0.1271 N   0  0  0  0  0
    5.7422    2.1921   -0.4204 C   0  0  0  0  0
    4.3235   -0.8601    1.4286 C   0  0  0  0  0
    4.1957   -1.1812    2.8882 H   0  0  0  0  0
    5.5233   -1.6057    0.9241 O   0  0  0  0  0
    3.0578   -1.2782    0.6595 C   0  0  0  0  0
    2.0467   -1.8906    1.5829 H   0  0  0  0  0
    3.3824   -2.3132   -0.3765 O   0  0  0  0  0
  1  2  1  0  0  0
  2 50  1  0  0  0
  2 34  1  0  0  0
  2  3  1  0  0  0
  3  4  1  0  0  0
  4  5  1  0  0  0
  5  8  1  0  0  0
  5  7  1  0  0  0
  5  6  2  0  0  0
  8  9  1  0  0  0
  9 12  1  0  0  0
  9 11  1  0  0  0
  9 10  2  0  0  0
 12 13  1  0  0  0
 13 14  1  0  0  0
 14 31  1  0  0  0
 14 16  1  0  0  0
 14 15  1  0  0  0
 16 17  1  0  0  0
 17 28  1  0  0  0
 17 19  1  0  0  0
 17 18  1  0  0  0
 19 24  1  0  0  0
 19 20  2  0  0  0
 20 21  1  0  0  0
 21 22  2  0  0  0
 22 23  1  0  0  0
 23 24  2  0  0  0
 23 25  1  0  0  0
 25 27  2  0  0  0
 25 26  1  0  0  0
 28 31  1  0  0  0
 28 30  1  0  0  0
 28 29  1  0  0  0
 31 33  1  0  0  0
 31 32  1  0  0  0
 34 35  1  0  0  0
 35 47  1  0  0  0
 35 37  1  0  0  0
 35 36  1  0  0  0
 37 46  1  0  0  0
 37 38  1  0  0  0
 38 39  2  0  0  0
 39 40  1  0  0  0
 40 46  2  0  0  0
 40 41  1  0  0  0
 41 43  2  0  0  0
 41 42  1  0  0  0
 43 44  1  0  0  0
 44 45  2  0  0  0
 45 46  1  0  0  0
 47 50  1  0  0  0
 47 49  1  0  0  0
 47 48  1  0  0  0
 50 52  1  0  0  0
 50 51  1  0  0  0
M  CHG  1  19   1
M  END
> <SMILES>
[H]C5(COP(=O)(O)OP(=O)(O)OCC2([H])(OC([H])([N+]1=CC=CC(=C1)C(N)=O)C([H])(O)C2([H])(O)))(OC([H])(N4C=NC=3C(N)=NC=NC=34)C([H])(O)C5([H])(O))

> <NAME>
NAD

> <BioCyc_link>
http://biocyc.org/HUMAN/NEW-IMAGE?object=NAD

> <BioCyc_name_HTML>
NAD<sup>+</sup>

> <CAS>
53-84-9

> <KEGG_ID>
C00003

> <toxTree.tree.cramer.CramerTreeResult>


> <FORMULA>


> <toxTree.tree.cramer.CramerRules>


$$$$
D-CARNITINE
 OpenBabel30120812303D

 11 10  0  0  0  0  0  0  0  0999 V2000
    1.0000    0.0000    0.0000 C   0  0  0  0  0
    2.5000    0.0000    0.0000 N   0  0  0  0  0
    2.9931   -0.6977    1.2329 C   0  0  0  0  0
    3.0193   -0.7348   -1.2002 C   0  0  0  0  0
    3.0007    1.4140    0.0000 C   0  0  0  0  0
    4.5007    1.4140    0.0000 C   0  0  0  0  0
    5.0200    0.6792   -1.2002 O   0  0  0  0  0
    5.0014    2.8279    0.0000 C   0  0  0  0  0
    6.5014    2.8279    0.0000 C   0  0  0  0  0
    7.2514    1.5289    0.0000 O   0  0  0  0  0
    7.2514    4.1270    0.0000 O   0  0  0  0  0
  1  2  1  0  0  0
  2  5  1  0  0  0
  2  4  1  0  0  0
  2  3  1  0  0  0
  5  6  1  0  0  0
  6  8  1  0  0  0
  6  7  1  0  0  0
  8  9  1  0  0  0
  9 11  1  0  0  0
  9 10  2  0  0  0
M  CHG  1   2   1
M  END
> <SMILES>
C[N+](C)(C)CC(O)CC(=O)O

> <NAME>
D-CARNITINE

> <BioCyc_link>
http://biocyc.org/HUMAN/NEW-IMAGE?object=D-CARNITINE

> <BioCyc_name_HTML>
D-carnitine

> <CAS>
541-14-0

> <KEGG_ID>
C00487

> <toxTree.tree.cramer.CramerTreeResult>


> <FORMULA>


> <toxTree.tree.cramer.CramerRules>


$$$$
5Z13E-15S-9-ALPHA15-DIHYDROXY-11-O
 OpenBabel30120812303D

 29 29  0  0  0  0  0  0  0  0999 V2000
    1.0000    0.0000    0.0000 H   0  0  0  0  0
    2.5000    0.0000    0.0000 C   0  0  0  0  0
    2.9931   -0.6977    1.2329 O   0  0  0  0  0
    3.0193   -0.7348   -1.2002 C   0  0  0  0  0
    2.5089   -2.1452   -1.1833 C   0  0  0  0  0
    3.0282   -2.8800   -2.3834 C   0  0  0  0  0
    2.5178   -4.2904   -2.3666 C   0  0  0  0  0
    3.0371   -5.0252   -3.5667 C   0  0  0  0  0
    3.0007    1.4140    0.0000 C   0  0  0  0  0
    4.4756    1.6873    0.0000 C   0  0  0  0  0
    4.9763    3.1013    0.0000 C   0  0  0  0  0
    5.9340    2.9268   -1.1412 H   0  0  0  0  0
    4.2067    4.3622   -0.4641 C   0  0  0  0  0
    2.9568    4.4470   -1.2891 O   0  0  0  0  0
    5.0519    5.5164    0.1376 C   0  0  0  0  0
    5.4962    4.9824    1.5154 C   0  0  0  0  0
    4.5948    5.4868    2.6031 H   0  0  0  0  0
    6.8813    5.4532    1.8472 O   0  0  0  0  0
    5.4480    3.4468    1.4276 C   0  0  0  0  0
    4.5123    2.8798    2.4538 H   0  0  0  0  0
    6.7996    2.8557    1.6990 C   0  0  0  0  0
    6.7200    1.3606    1.6062 C   0  0  0  0  0
    7.9464    0.5285    1.8376 C   0  0  0  0  0
    7.8669   -0.9665    1.7448 C   0  0  0  0  0
    9.2185   -1.5576    2.0162 C   0  0  0  0  0
    9.1390   -3.0526    1.9234 C   0  0  0  0  0
   10.4906   -3.6438    2.1948 C   0  0  0  0  0
   11.6540   -2.7471    2.4990 O   0  0  0  0  0
   10.6788   -5.1316    2.1620 O   0  0  0  0  0
  1  2  1  0  0  0
  2  9  1  0  0  0
  2  4  1  0  0  0
  2  3  1  0  0  0
  4  5  1  0  0  0
  5  6  1  0  0  0
  6  7  1  0  0  0
  7  8  1  0  0  0
  9 10  2  0  0  0
 10 11  1  0  0  0
 11 19  1  0  0  0
 11 13  1  0  0  0
 11 12  1  0  0  0
 13 15  1  0  0  0
 13 14  2  0  0  0
 15 16  1  0  0  0
 16 19  1  0  0  0
 16 18  1  0  0  0
 16 17  1  0  0  0
 19 21  1  0  0  0
 19 20  1  0  0  0
 21 22  1  0  0  0
 22 23  2  0  0  0
 23 24  1  0  0  0
 24 25  1  0  0  0
 25 26  1  0  0  0
 26 27  1  0  0  0
 27 29  1  0  0  0
 27 28  2  0  0  0
M  END
> <SMILES>
[H]C(O)(CCCCC)C=CC1([H])(C(=O)CC([H])(O)C1([H])(CC=CCCCC(=O)O))

> <NAME>
5Z13E-15S-9-ALPHA15-DIHYDROXY-11-O

> <BioCyc_link>
http://biocyc.org/HUMAN/NEW-IMAGE?object=5Z13E-15S-9-ALPHA15-DIHYDROXY-11-O

> <BioCyc_name_HTML>
(5z,13e)-(15s)-9-&alpha;,15-dihydroxy-11-oxoprosta-5,13-dienoate

> <CAS>
41598-07-6

> <KEGG_ID>
C00696

> <toxTree.tree.cramer.CramerTreeResult>


> <FORMULA>


> <toxTree.tree.cramer.CramerRules>


$$$$
CPD1F-129
 OpenBabel30120812303D

 40 41  0  0  0  0  0  0  0  0999 V2000
    1.0000    0.0000    0.0000 C   0  0  0  0  0
    2.5000    0.0000    0.0000 C   0  0  0  0  0
    3.2500   -1.2990    0.0000 C   0  0  0  0  0
    2.5000   -2.5981    0.0000 C   0  0  0  0  0
    3.2500   -3.8971    0.0000 C   0  0  0  0  0
    2.5000   -5.1962    0.0000 C   0  0  0  0  0
    3.2500   -6.4952    0.0000 C   0  0  0  0  0
    4.7500   -6.4952    0.0000 C   0  0  0  0  0
    2.5000   -7.7942    0.0000 C   0  0  0  0  0
    3.2500   -9.0933    0.0000 C   0  0  0  0  0
    2.5000  -10.3923    0.0000 C   0  0  0  0  0
    3.2500  -11.6913    0.0000 C   0  0  0  0  0
    4.7500  -11.6913    0.0000 C   0  0  0  0  0
    2.5000  -12.9904    0.0000 C   0  0  0  0  0
    3.2500  -14.2894    0.0000 C   0  0  0  0  0
    2.5000  -15.5885    0.0000 C   0  0  0  0  0
    3.1653  -16.7809    0.0115 C   0  0  0  0  0
    4.6648  -16.8105    0.0371 C   0  0  0  0  0
    2.4533  -17.9466   -0.0005 C   0  0  0  0  0
    1.1107  -17.9458   -0.0116 C   0  0  0  0  0
    0.4009  -16.8042   -0.0176 C   0  0  0  0  0
    1.0304  -15.6100   -0.0124 C   0  0  0  0  0
    0.6881  -15.0337   -1.3543 C   0  0  0  0  0
    0.5287  -14.8079    1.1516 C   0  0  0  0  0
    3.2500    1.2990    0.0000 C   0  0  0  0  0
    4.7500    1.2990    0.0000 C   0  0  0  0  0
    5.5000    2.5981    0.0000 C   0  0  0  0  0
    7.0000    2.5981    0.0000 C   0  0  0  0  0
    7.7500    1.2990    0.0000 C   0  0  0  0  0
    7.7500    3.8971    0.0000 C   0  0  0  0  0
    9.2500    3.8971    0.0000 C   0  0  0  0  0
   10.0000    5.1962    0.0000 C   0  0  0  0  0
    9.3347    6.3886    0.0115 C   0  0  0  0  0
    7.8352    6.4182    0.0371 C   0  0  0  0  0
   10.0467    7.5543   -0.0005 C   0  0  0  0  0
   11.3893    7.5535   -0.0116 C   0  0  0  0  0
   12.0991    6.4119   -0.0176 C   0  0  0  0  0
   11.4696    5.2177   -0.0124 C   0  0  0  0  0
   11.8119    4.6414   -1.3543 C   0  0  0  0  0
   11.9713    4.4156    1.1516 C   0  0  0  0  0
  1  2  1  0  0  0
  2 25  1  0  0  0
  2  3  2  0  0  0
  3  4  1  0  0  0
  4  5  2  0  0  0
  5  6  1  0  0  0
  6  7  2  0  0  0
  7  9  1  0  0  0
  7  8  1  0  0  0
  9 10  2  0  0  0
 10 11  1  0  0  0
 11 12  2  0  0  0
 12 14  1  0  0  0
 12 13  1  0  0  0
 14 15  2  0  0  0
 15 16  1  0  0  0
 16 22  1  0  0  0
 16 17  2  0  0  0
 17 19  1  0  0  0
 17 18  1  0  0  0
 19 20  1  0  0  0
 20 21  1  0  0  0
 21 22  1  0  0  0
 22 24  1  0  0  0
 22 23  1  0  0  0
 25 26  2  0  0  0
 26 27  1  0  0  0
 27 28  2  0  0  0
 28 30  1  0  0  0
 28 29  1  0  0  0
 30 31  2  0  0  0
 31 32  1  0  0  0
 32 38  1  0  0  0
 32 33  2  0  0  0
 33 35  1  0  0  0
 33 34  1  0  0  0
 35 36  1  0  0  0
 36 37  1  0  0  0
 37 38  1  0  0  0
 38 40  1  0  0  0
 38 39  1  0  0  0
M  END
> <SMILES>
CC(=CC=CC=C(C)C=CC=C(C)C=CC1=C(C)CCCC1(C)(C))C=CC=C(C)C=CC2=C(C)CCCC2(C)(C)

> <NAME>
CPD1F-129

> <BioCyc_link>
http://biocyc.org/HUMAN/NEW-IMAGE?object=CPD1F-129

> <BioCyc_name_HTML>
&beta;-carotene

> <CAS>
7235-40-7

> <KEGG_ID>
C02094

> <toxTree.tree.cramer.CramerTreeResult>


> <FORMULA>


> <toxTree.tree.cramer.CramerRules>


$$$$
3-HEXAPRENYL-4-HYDROXYBENZOATE
 OpenBabel30120812303D

 40 40  0  0  0  0  0  0  0  0999 V2000
    1.0000    0.0000    0.0000 C   0  0  0  0  0
    2.5000    0.0000    0.0000 C   0  0  0  0  0
    3.2500   -1.2990    0.0000 C   0  0  0  0  0
    3.2500    1.2990    0.0000 C   0  0  0  0  0
    4.7500    1.2990    0.0000 C   0  0  0  0  0
    5.2507    2.7130    0.0000 C   0  0  0  0  0
    6.7507    2.7130    0.0000 C   0  0  0  0  0
    7.5007    1.4140    0.0000 C   0  0  0  0  0
    7.5007    4.0120    0.0000 C   0  0  0  0  0
    9.0007    4.0120    0.0000 C   0  0  0  0  0
    9.5014    5.4260    0.0000 C   0  0  0  0  0
   11.0014    5.4260    0.0000 C   0  0  0  0  0
   11.7514    4.1270    0.0000 C   0  0  0  0  0
   11.7514    6.7250    0.0000 C   0  0  0  0  0
   13.2514    6.7250    0.0000 C   0  0  0  0  0
   13.7521    8.1390    0.0000 C   0  0  0  0  0
   15.2521    8.1390    0.0000 C   0  0  0  0  0
   16.0021    6.8400    0.0000 C   0  0  0  0  0
   16.0021    9.4380    0.0000 C   0  0  0  0  0
   17.5021    9.4380    0.0000 C   0  0  0  0  0
   18.0028   10.8520    0.0000 C   0  0  0  0  0
   19.5028   10.8520    0.0000 C   0  0  0  0  0
   20.2528    9.5530    0.0000 C   0  0  0  0  0
   20.2528   12.1510    0.0000 C   0  0  0  0  0
   21.7528   12.1510    0.0000 C   0  0  0  0  0
   22.2536   13.5650    0.0000 C   0  0  0  0  0
   23.7536   13.5650    0.0000 C   0  0  0  0  0
   24.5036   12.2660    0.0000 C   0  0  0  0  0
   24.5036   14.8640    0.0000 C   0  0  0  0  0
   26.0036   14.8640    0.0000 C   0  0  0  0  0
   26.5043   16.2780    0.0000 C   0  0  0  0  0
   27.8603   16.5275    0.0245 C   0  0  0  0  0
   28.3255   17.8440    0.0366 C   0  0  0  0  0
   27.4126   18.8996    0.0177 C   0  0  0  0  0
   26.0592   18.6364   -0.0127 C   0  0  0  0  0
   25.6045   17.3290   -0.0246 C   0  0  0  0  0
   24.1311   17.0506   -0.0642 O   0  0  0  0  0
   29.7991   18.1224    0.0697 C   0  0  0  0  0
   30.7770   16.9851    0.0899 O   0  0  0  0  0
   30.2948   19.5380    0.0826 O   0  0  0  0  0
  1  2  1  0  0  0
  2  4  2  0  0  0
  2  3  1  0  0  0
  4  5  1  0  0  0
  5  6  1  0  0  0
  6  7  1  0  0  0
  7  9  2  0  0  0
  7  8  1  0  0  0
  9 10  1  0  0  0
 10 11  1  0  0  0
 11 12  1  0  0  0
 12 14  2  0  0  0
 12 13  1  0  0  0
 14 15  1  0  0  0
 15 16  1  0  0  0
 16 17  1  0  0  0
 17 19  2  0  0  0
 17 18  1  0  0  0
 19 20  1  0  0  0
 20 21  1  0  0  0
 21 22  1  0  0  0
 22 24  2  0  0  0
 22 23  1  0  0  0
 24 25  1  0  0  0
 25 26  1  0  0  0
 26 27  1  0  0  0
 27 29  2  0  0  0
 27 28  1  0  0  0
 29 30  1  0  0  0
 30 31  1  0  0  0
 31 36  2  0  0  0
 31 32  1  0  0  0
 32 33  2  0  0  0
 33 34  1  0  0  0
 33 38  1  0  0  0
 34 35  2  0  0  0
 35 36  1  0  0  0
 36 37  1  0  0  0
 38 40  1  0  0  0
 38 39  2  0  0  0
M  END
> <SMILES>
CC(C)=CCCC(C)=CCCC(C)=CCCC(C)=CCCC(C)=CCCC(C)=CCC=1C=C(C=CC=1(O))C(=O)O

> <NAME>
3-HEXAPRENYL-4-HYDROXYBENZOATE

> <BioCyc_link>
http://biocyc.org/HUMAN/NEW-IMAGE?object=3-HEXAPRENYL-4-HYDROXYBENZOATE

> <BioCyc_name_HTML>
3-hexaprenyl-4-hydroxybenzoate

> <CAS>


> <KEGG_ID>
C13425

> <toxTree.tree.cramer.CramerTreeResult>


> <FORMULA>


> <toxTree.tree.cramer.CramerRules>


$$$$
UBIQUINOL-8
 OpenBabel30120812303D

 23 23  0  0  0  0  0  0  0  0999 V2000
    1.0000    0.0000    0.0000 C   0  0  0  0  0
    2.5000    0.0000    0.0000 O   0  0  0  0  0
    3.2500    1.2990    0.0000 C   0  0  0  0  0
    4.6289    1.2972    0.0150 C   0  0  0  0  0
    5.3784   -0.0021    0.0183 O   0  0  0  0  0
    5.3263    2.5068    0.0271 C   0  0  0  0  0
    6.8261    2.5119    0.0500 C   0  0  0  0  0
    4.6209    3.7112    0.0179 C   0  0  0  0  0
    5.3609    5.0158    0.0308 C   0  0  0  0  0
    4.3783    6.1491    0.0172 C   0  0  0  0  0
    4.8682    7.5668    0.0265 C   0  0  0  0  0
    6.3408    7.8512    0.0493 C   0  0  0  0  0
    3.8855    8.7000    0.0129 C   0  0  0  0  0
    4.6256   10.0046    0.0258 C   0  0  0  0  0
    3.6429   11.1379    0.0123 C   0  0  0  0  0
    4.1328   12.5556    0.0215 C   0  0  0  0  0
    5.6054   12.8400    0.0443 C   0  0  0  0  0
    3.1502   13.6888    0.0080 C   0  0  0  0  0
    3.2421    3.6990   -0.0031 C   0  0  0  0  0
    2.4829    4.9927   -0.0131 O   0  0  0  0  0
    2.5567    2.4965   -0.0151 C   0  0  0  0  0
    1.0570    2.4913   -0.0444 O   0  0  0  0  0
    0.3115    1.1897   -0.0574 C   0  0  0  0  0
  1  2  1  0  0  0
  2  3  1  0  0  0
  3 21  1  0  0  0
  3  4  2  0  0  0
  4  6  1  0  0  0
  4  5  1  0  0  0
  6  8  2  0  0  0
  6  7  1  0  0  0
  8 19  1  0  0  0
  8  9  1  0  0  0
  9 10  1  0  0  0
 10 11  2  0  0  0
 11 13  1  0  0  0
 11 12  1  0  0  0
 13 14  1  0  0  0
 14 15  1  0  0  0
 15 16  2  0  0  0
 16 18  1  0  0  0
 16 17  1  0  0  0
 19 21  2  0  0  0
 19 20  1  0  0  0
 21 22  1  0  0  0
 22 23  1  0  0  0
M  END
> <SMILES>
COC1=C(O)C(C)=C(CC=C(C)CCC=C(C)C)C(O)=C1(OC)

> <NAME>
UBIQUINOL-8

> <BioCyc_link>
http://biocyc.org/HUMAN/NEW-IMAGE?object=UBIQUINOL-8

> <BioCyc_name_HTML>
ubiquinol-<i>8</i>

> <CAS>


> <KEGG_ID>
C00390

> <toxTree.tree.cramer.CramerTreeResult>


> <FORMULA>


> <toxTree.tree.cramer.CramerRules>


$$$$
3-HEXAPRENYL-45-DIHYDROXYBENZOATE
 OpenBabel30120812303D

 41 41  0  0  0  0  0  0  0  0999 V2000
    1.0000    0.0000    0.0000 C   0  0  0  0  0
    2.5000    0.0000    0.0000 C   0  0  0  0  0
    3.2500   -1.2990    0.0000 C   0  0  0  0  0
    3.2500    1.2990    0.0000 C   0  0  0  0  0
    4.7500    1.2990    0.0000 C   0  0  0  0  0
    5.2507    2.7130    0.0000 C   0  0  0  0  0
    6.7507    2.7130    0.0000 C   0  0  0  0  0
    7.5007    1.4140    0.0000 C   0  0  0  0  0
    7.5007    4.0120    0.0000 C   0  0  0  0  0
    9.0007    4.0120    0.0000 C   0  0  0  0  0
    9.5014    5.4260    0.0000 C   0  0  0  0  0
   11.0014    5.4260    0.0000 C   0  0  0  0  0
   11.7514    4.1270    0.0000 C   0  0  0  0  0
   11.7514    6.7250    0.0000 C   0  0  0  0  0
   13.2514    6.7250    0.0000 C   0  0  0  0  0
   13.7521    8.1390    0.0000 C   0  0  0  0  0
   15.2521    8.1390    0.0000 C   0  0  0  0  0
   16.0021    6.8400    0.0000 C   0  0  0  0  0
   16.0021    9.4380    0.0000 C   0  0  0  0  0
   17.5021    9.4380    0.0000 C   0  0  0  0  0
   18.0028   10.8520    0.0000 C   0  0  0  0  0
   19.5028   10.8520    0.0000 C   0  0  0  0  0
   20.2528    9.5530    0.0000 C   0  0  0  0  0
   20.2528   12.1510    0.0000 C   0  0  0  0  0
   21.7528   12.1510    0.0000 C   0  0  0  0  0
   22.2536   13.5650    0.0000 C   0  0  0  0  0
   23.7536   13.5650    0.0000 C   0  0  0  0  0
   24.5036   12.2660    0.0000 C   0  0  0  0  0
   24.5036   14.8640    0.0000 C   0  0  0  0  0
   26.0036   14.8640    0.0000 C   0  0  0  0  0
   26.5043   16.2780    0.0000 C   0  0  0  0  0
   27.8603   16.5275    0.0245 C   0  0  0  0  0
   28.3255   17.8440    0.0366 C   0  0  0  0  0
   27.4126   18.8996    0.0177 C   0  0  0  0  0
   26.0592   18.6364   -0.0127 C   0  0  0  0  0
   25.0771   19.7700   -0.0329 O   0  0  0  0  0
   25.6045   17.3290   -0.0246 C   0  0  0  0  0
   24.1311   17.0506   -0.0642 O   0  0  0  0  0
   29.7991   18.1224    0.0697 C   0  0  0  0  0
   30.7770   16.9851    0.0899 O   0  0  0  0  0
   30.2948   19.5380    0.0826 O   0  0  0  0  0
  1  2  1  0  0  0
  2  4  2  0  0  0
  2  3  1  0  0  0
  4  5  1  0  0  0
  5  6  1  0  0  0
  6  7  1  0  0  0
  7  9  2  0  0  0
  7  8  1  0  0  0
  9 10  1  0  0  0
 10 11  1  0  0  0
 11 12  1  0  0  0
 12 14  2  0  0  0
 12 13  1  0  0  0
 14 15  1  0  0  0
 15 16  1  0  0  0
 16 17  1  0  0  0
 17 19  2  0  0  0
 17 18  1  0  0  0
 19 20  1  0  0  0
 20 21  1  0  0  0
 21 22  1  0  0  0
 22 24  2  0  0  0
 22 23  1  0  0  0
 24 25  1  0  0  0
 25 26  1  0  0  0
 26 27  1  0  0  0
 27 29  2  0  0  0
 27 28  1  0  0  0
 29 30  1  0  0  0
 30 31  1  0  0  0
 31 37  2  0  0  0
 31 32  1  0  0  0
 32 33  2  0  0  0
 33 34  1  0  0  0
 33 39  1  0  0  0
 34 35  2  0  0  0
 35 37  1  0  0  0
 35 36  1  0  0  0
 37 38  1  0  0  0
 39 41  1  0  0  0
 39 40  2  0  0  0
M  END
> <SMILES>
CC(C)=CCCC(C)=CCCC(C)=CCCC(C)=CCCC(C)=CCCC(C)=CCC=1C=C(C=C(O)C=1(O))C(=O)O

> <NAME>
3-HEXAPRENYL-45-DIHYDROXYBENZOATE

> <BioCyc_link>
http://biocyc.org/HUMAN/NEW-IMAGE?object=3-HEXAPRENYL-45-DIHYDROXYBENZOATE

> <BioCyc_name_HTML>
3-hexaprenyl-4,5-dihydroxybenzoate

> <CAS>


> <KEGG_ID>
C05200

> <toxTree.tree.cramer.CramerTreeResult>


> <FORMULA>


> <toxTree.tree.cramer.CramerRules>


$$$$
3-HEXAPRENYL-4-HYDROXY-5-METHOXYBENZOATE
 OpenBabel30120812303D

 42 42  0  0  0  0  0  0  0  0999 V2000
    1.0000    0.0000    0.0000 C   0  0  0  0  0
    2.5000    0.0000    0.0000 O   0  0  0  0  0
    3.2500    1.2990    0.0000 C   0  0  0  0  0
    4.6289    1.2972    0.0150 C   0  0  0  0  0
    5.3263    2.5068    0.0271 C   0  0  0  0  0
    4.6209    3.7112    0.0179 C   0  0  0  0  0
    3.2421    3.6990   -0.0031 C   0  0  0  0  0
    2.4829    4.9927   -0.0131 C   0  0  0  0  0
    1.0102    4.7088   -0.0358 C   0  0  0  0  0
    0.0279    5.8424   -0.0494 C   0  0  0  0  0
    0.5184    7.2599   -0.0401 C   0  0  0  0  0
   -1.4448    5.5585   -0.0721 C   0  0  0  0  0
   -2.2040    6.8521   -0.0821 C   0  0  0  0  0
   -3.6767    6.5682   -0.1049 C   0  0  0  0  0
   -4.6589    7.7018   -0.1184 C   0  0  0  0  0
   -4.1684    9.1193   -0.1091 C   0  0  0  0  0
   -6.1316    7.4179   -0.1412 C   0  0  0  0  0
   -6.8908    8.7116   -0.1511 C   0  0  0  0  0
   -8.3635    8.4277   -0.1739 C   0  0  0  0  0
   -9.3458    9.5613   -0.1874 C   0  0  0  0  0
   -8.8553   10.9788   -0.1782 C   0  0  0  0  0
  -10.8185    9.2774   -0.2102 C   0  0  0  0  0
  -11.5777   10.5710   -0.2201 C   0  0  0  0  0
  -13.0504   10.2871   -0.2429 C   0  0  0  0  0
  -14.0326   11.4207   -0.2564 C   0  0  0  0  0
  -13.5421   12.8383   -0.2472 C   0  0  0  0  0
  -15.5053   11.1368   -0.2792 C   0  0  0  0  0
  -16.2645   12.4305   -0.2892 C   0  0  0  0  0
  -17.7372   12.1466   -0.3119 C   0  0  0  0  0
  -18.7195   13.2802   -0.3255 C   0  0  0  0  0
  -18.2290   14.6977   -0.3162 C   0  0  0  0  0
  -20.1922   12.9963   -0.3483 C   0  0  0  0  0
  -20.9514   14.2899   -0.3582 C   0  0  0  0  0
  -22.4241   14.0060   -0.3810 C   0  0  0  0  0
  -23.4063   15.1397   -0.3945 C   0  0  0  0  0
  -22.9158   16.5572   -0.3853 C   0  0  0  0  0
  -24.8790   14.8558   -0.4173 C   0  0  0  0  0
    2.5567    2.4965   -0.0151 C   0  0  0  0  0
    1.0570    2.4913   -0.0444 O   0  0  0  0  0
    6.8261    2.5119    0.0500 C   0  0  0  0  0
    7.5805    1.2155    0.0598 O   0  0  0  0  0
    7.5716    3.8135    0.0629 O   0  0  0  0  0
  1  2  1  0  0  0
  2  3  1  0  0  0
  3 38  1  0  0  0
  3  4  2  0  0  0
  4  5  1  0  0  0
  5  6  2  0  0  0
  5 40  1  0  0  0
  6  7  1  0  0  0
  7 38  2  0  0  0
  7  8  1  0  0  0
  8  9  1  0  0  0
  9 10  2  0  0  0
 10 12  1  0  0  0
 10 11  1  0  0  0
 12 13  1  0  0  0
 13 14  1  0  0  0
 14 15  2  0  0  0
 15 17  1  0  0  0
 15 16  1  0  0  0
 17 18  1  0  0  0
 18 19  1  0  0  0
 19 20  2  0  0  0
 20 22  1  0  0  0
 20 21  1  0  0  0
 22 23  1  0  0  0
 23 24  1  0  0  0
 24 25  2  0  0  0
 25 27  1  0  0  0
 25 26  1  0  0  0
 27 28  1  0  0  0
 28 29  1  0  0  0
 29 30  2  0  0  0
 30 32  1  0  0  0
 30 31  1  0  0  0
 32 33  1  0  0  0
 33 34  1  0  0  0
 34 35  2  0  0  0
 35 37  1  0  0  0
 35 36  1  0  0  0
 38 39  1  0  0  0
 40 42  1  0  0  0
 40 41  2  0  0  0
M  END
> <SMILES>
COC1=CC(=CC(CC=C(C)CCC=C(C)CCC=C(C)CCC=C(C)CCC=C(C)CCC=C(C)C)=C1(O))C(=O)O

> <NAME>
3-HEXAPRENYL-4-HYDROXY-5-METHOXYBENZOATE

> <BioCyc_link>
http://biocyc.org/HUMAN/NEW-IMAGE?object=3-HEXAPRENYL-4-HYDROXY-5-METHOXYBENZOATE

> <BioCyc_name_HTML>
3-hexaprenyl-4-hydroxy-5-methoxybenzoate

> <CAS>


> <KEGG_ID>
C05313

> <toxTree.tree.cramer.CramerTreeResult>


> <FORMULA>


> <toxTree.tree.cramer.CramerRules>


$$$$
2-HEXAPRENYL-6-METHOXYPHENOL
 OpenBabel30120812303D

 39 39  0  0  0  0  0  0  0  0999 V2000
    1.0000    0.0000    0.0000 C   0  0  0  0  0
    2.5000    0.0000    0.0000 O   0  0  0  0  0
    3.2500    1.2990    0.0000 C   0  0  0  0  0
    4.6289    1.2972    0.0150 C   0  0  0  0  0
    5.3263    2.5068    0.0271 C   0  0  0  0  0
    4.6209    3.7112    0.0179 C   0  0  0  0  0
    3.2421    3.6990   -0.0031 C   0  0  0  0  0
    2.4829    4.9927   -0.0131 C   0  0  0  0  0
    1.0102    4.7088   -0.0358 C   0  0  0  0  0
    0.0279    5.8424   -0.0494 C   0  0  0  0  0
    0.5184    7.2599   -0.0401 C   0  0  0  0  0
   -1.4448    5.5585   -0.0721 C   0  0  0  0  0
   -2.2040    6.8521   -0.0821 C   0  0  0  0  0
   -3.6767    6.5682   -0.1049 C   0  0  0  0  0
   -4.6589    7.7018   -0.1184 C   0  0  0  0  0
   -4.1684    9.1193   -0.1091 C   0  0  0  0  0
   -6.1316    7.4179   -0.1412 C   0  0  0  0  0
   -6.8908    8.7116   -0.1511 C   0  0  0  0  0
   -8.3635    8.4277   -0.1739 C   0  0  0  0  0
   -9.3458    9.5613   -0.1874 C   0  0  0  0  0
   -8.8553   10.9788   -0.1782 C   0  0  0  0  0
  -10.8185    9.2774   -0.2102 C   0  0  0  0  0
  -11.5777   10.5710   -0.2201 C   0  0  0  0  0
  -13.0504   10.2871   -0.2429 C   0  0  0  0  0
  -14.0326   11.4207   -0.2564 C   0  0  0  0  0
  -13.5421   12.8383   -0.2472 C   0  0  0  0  0
  -15.5053   11.1368   -0.2792 C   0  0  0  0  0
  -16.2645   12.4305   -0.2892 C   0  0  0  0  0
  -17.7372   12.1466   -0.3119 C   0  0  0  0  0
  -18.7195   13.2802   -0.3255 C   0  0  0  0  0
  -18.2290   14.6977   -0.3162 C   0  0  0  0  0
  -20.1922   12.9963   -0.3483 C   0  0  0  0  0
  -20.9514   14.2899   -0.3582 C   0  0  0  0  0
  -22.4241   14.0060   -0.3810 C   0  0  0  0  0
  -23.4063   15.1397   -0.3945 C   0  0  0  0  0
  -22.9158   16.5572   -0.3853 C   0  0  0  0  0
  -24.8790   14.8558   -0.4173 C   0  0  0  0  0
    2.5567    2.4965   -0.0151 C   0  0  0  0  0
    1.0570    2.4913   -0.0444 O   0  0  0  0  0
  1  2  1  0  0  0
  2  3  1  0  0  0
  3 38  1  0  0  0
  3  4  2  0  0  0
  4  5  1  0  0  0
  5  6  2  0  0  0
  6  7  1  0  0  0
  7 38  2  0  0  0
  7  8  1  0  0  0
  8  9  1  0  0  0
  9 10  2  0  0  0
 10 12  1  0  0  0
 10 11  1  0  0  0
 12 13  1  0  0  0
 13 14  1  0  0  0
 14 15  2  0  0  0
 15 17  1  0  0  0
 15 16  1  0  0  0
 17 18  1  0  0  0
 18 19  1  0  0  0
 19 20  2  0  0  0
 20 22  1  0  0  0
 20 21  1  0  0  0
 22 23  1  0  0  0
 23 24  1  0  0  0
 24 25  2  0  0  0
 25 27  1  0  0  0
 25 26  1  0  0  0
 27 28  1  0  0  0
 28 29  1  0  0  0
 29 30  2  0  0  0
 30 32  1  0  0  0
 30 31  1  0  0  0
 32 33  1  0  0  0
 33 34  1  0  0  0
 34 35  2  0  0  0
 35 37  1  0  0  0
 35 36  1  0  0  0
 38 39  1  0  0  0
M  END
> <SMILES>
COC1=CC=CC(CC=C(C)CCC=C(C)CCC=C(C)CCC=C(C)CCC=C(C)CCC=C(C)C)=C1(O)

> <NAME>
2-HEXAPRENYL-6-METHOXYPHENOL

> <BioCyc_link>
http://biocyc.org/HUMAN/NEW-IMAGE?object=2-HEXAPRENYL-6-METHOXYPHENOL

> <BioCyc_name_HTML>
2-hexaprenyl-6-methoxyphenol

> <CAS>


> <KEGG_ID>
C05802

> <toxTree.tree.cramer.CramerTreeResult>


> <FORMULA>


> <toxTree.tree.cramer.CramerRules>


$$$$
CIT
 OpenBabel30120812303D

 13 12  0  0  0  0  0  0  0  0999 V2000
    1.0000    0.0000    0.0000 O   0  0  0  0  0
    2.5000    0.0000    0.0000 C   0  0  0  0  0
    3.2500   -1.2990    0.0000 O   0  0  0  0  0
    3.2500    1.2990    0.0000 C   0  0  0  0  0
    4.7249    1.0257    0.0000 C   0  0  0  0  0
    5.0826    0.2498    1.2329 O   0  0  0  0  0
    5.1016    0.2085   -1.2002 C   0  0  0  0  0
    4.3427   -1.0852   -1.1833 C   0  0  0  0  0
    3.3845   -1.3781   -0.0671 O   0  0  0  0  0
    4.5421   -2.0861   -2.2826 O   0  0  0  0  0
    5.4749    2.3247    0.0000 C   0  0  0  0  0
    4.7249    3.6238    0.0000 O   0  0  0  0  0
    6.9749    2.3247    0.0000 O   0  0  0  0  0
  1  2  2  0  0  0
  2  4  1  0  0  0
  2  3  1  0  0  0
  4  5  1  0  0  0
  5 11  1  0  0  0
  5  7  1  0  0  0
  5  6  1  0  0  0
  7  8  1  0  0  0
  8 10  1  0  0  0
  8  9  2  0  0  0
 11 13  1  0  0  0
 11 12  2  0  0  0
M  END
> <SMILES>
O=C(O)CC(O)(CC(=O)O)C(=O)O

> <NAME>
CIT

> <BioCyc_link>
http://biocyc.org/HUMAN/NEW-IMAGE?object=CIT

> <BioCyc_name_HTML>
citrate

> <CAS>
77-92-9

> <KEGG_ID>
C00158

> <toxTree.tree.cramer.CramerTreeResult>


> <FORMULA>


> <toxTree.tree.cramer.CramerRules>


$$$$
PANTOTHENATE
 OpenBabel30120812303D

 16 15  0  0  0  0  0  0  0  0999 V2000
    1.0000    0.0000    0.0000 H   0  0  0  0  0
    2.5000    0.0000    0.0000 C   0  0  0  0  0
    2.9931   -0.6977    1.2329 O   0  0  0  0  0
    3.0193   -0.7348   -1.2002 C   0  0  0  0  0
    3.9071   -0.0318   -2.1838 O   0  0  0  0  0
    2.6508   -2.1726   -1.4167 N   0  0  0  0  0
    3.1701   -2.9074   -2.6168 C   0  0  0  0  0
    2.6597   -4.3178   -2.6000 C   0  0  0  0  0
    3.1790   -5.0526   -3.8001 C   0  0  0  0  0
    4.0668   -4.3496   -4.7837 O   0  0  0  0  0
    2.8105   -6.4905   -4.0166 O   0  0  0  0  0
    3.0007    1.4140    0.0000 C   0  0  0  0  0
    2.5076    2.1117   -1.2329 C   0  0  0  0  0
    2.4814    2.1488    1.2002 C   0  0  0  0  0
    4.5007    1.4140    0.0000 C   0  0  0  0  0
    5.0014    2.8279    0.0000 O   0  0  0  0  0
  1  2  1  0  0  0
  2 12  1  0  0  0
  2  4  1  0  0  0
  2  3  1  0  0  0
  4  6  1  0  0  0
  4  5  2  0  0  0
  6  7  1  0  0  0
  7  8  1  0  0  0
  8  9  1  0  0  0
  9 11  1  0  0  0
  9 10  2  0  0  0
 12 15  1  0  0  0
 12 14  1  0  0  0
 12 13  1  0  0  0
 15 16  1  0  0  0
M  END
> <SMILES>
[H]C(O)(C(=O)NCCC(=O)O)C(C)(C)CO

> <NAME>
PANTOTHENATE

> <BioCyc_link>
http://biocyc.org/HUMAN/NEW-IMAGE?object=PANTOTHENATE

> <BioCyc_name_HTML>
pantothenate

> <CAS>
79-83-4

> <KEGG_ID>
C00864

> <toxTree.tree.cramer.CramerTreeResult>


> <FORMULA>


> <toxTree.tree.cramer.CramerRules>


$$$$
H2CO3
 OpenBabel30120812303D

  4  3  0  0  0  0  0  0  0  0999 V2000
    1.0000    0.0000    0.0000 O   0  0  0  0  0
    2.5000    0.0000    0.0000 C   0  0  0  0  0
    3.2500   -1.2990    0.0000 O   0  0  0  0  0
    3.2500    1.2990    0.0000 O   0  0  0  0  0
  1  2  2  0  0  0
  2  4  1  0  0  0
  2  3  1  0  0  0
M  END
> <SMILES>
O=C(O)O

> <NAME>
H2CO3

> <BioCyc_link>
http://biocyc.org/HUMAN/NEW-IMAGE?object=H2CO3

> <BioCyc_name_HTML>
H<SUB>2</SUB>CO<SUB>3</SUB>

> <CAS>
463-79-6

> <KEGG_ID>
C01353

> <toxTree.tree.cramer.CramerTreeResult>


> <FORMULA>


> <toxTree.tree.cramer.CramerRules>


$$$$
THREO-DS-ISO-CITRATE
 OpenBabel30120812303D

 13 12  0  0  0  0  0  0  0  0999 V2000
    1.0000    0.0000    0.0000 O   0  0  0  0  0
    2.5000    0.0000    0.0000 C   0  0  0  0  0
    3.2500   -1.2990    0.0000 O   0  0  0  0  0
    3.2500    1.2990    0.0000 C   0  0  0  0  0
    4.7249    1.0257    0.0000 C   0  0  0  0  0
    5.1016    0.2085   -1.2002 C   0  0  0  0  0
    6.1027    0.7380   -2.1838 O   0  0  0  0  0
    4.4772   -1.1380   -1.4167 O   0  0  0  0  0
    5.4749    2.3247    0.0000 C   0  0  0  0  0
    5.0982    3.1419    1.2002 O   0  0  0  0  0
    6.9498    2.0514    0.0000 C   0  0  0  0  0
    7.4505    0.6374    0.0000 O   0  0  0  0  0
    7.9239    3.1920    0.0000 O   0  0  0  0  0
  1  2  2  0  0  0
  2  4  1  0  0  0
  2  3  1  0  0  0
  4  5  1  0  0  0
  5  9  1  0  0  0
  5  6  1  0  0  0
  6  8  1  0  0  0
  6  7  2  0  0  0
  9 11  1  0  0  0
  9 10  1  0  0  0
 11 13  1  0  0  0
 11 12  2  0  0  0
M  END
> <SMILES>
O=C(O)CC(C(=O)O)C(O)C(=O)O

> <NAME>
THREO-DS-ISO-CITRATE

> <BioCyc_link>
http://biocyc.org/HUMAN/NEW-IMAGE?object=THREO-DS-ISO-CITRATE

> <BioCyc_name_HTML>
D-isocitrate

> <CAS>
320-77-4

> <KEGG_ID>
C00311

> <toxTree.tree.cramer.CramerTreeResult>


> <FORMULA>


> <toxTree.tree.cramer.CramerRules>


$$$$
METHYL-GLYOXAL
 OpenBabel30120812303D

  5  4  0  0  0  0  0  0  0  0999 V2000
    1.0000    0.0000    0.0000 C   0  0  0  0  0
    2.5000    0.0000    0.0000 C   0  0  0  0  0
    3.2500   -1.2990    0.0000 O   0  0  0  0  0
    3.2500    1.2990    0.0000 C   0  0  0  0  0
    4.7500    1.2990    0.0000 O   0  0  0  0  0
  1  2  1  0  0  0
  2  4  1  0  0  0
  2  3  2  0  0  0
  4  5  2  0  0  0
M  END
> <SMILES>
CC(=O)C=O

> <NAME>
METHYL-GLYOXAL

> <BioCyc_link>
http://biocyc.org/HUMAN/NEW-IMAGE?object=METHYL-GLYOXAL

> <BioCyc_name_HTML>
methylglyoxal

> <CAS>
78-98-8

> <KEGG_ID>
C00546

> <toxTree.tree.cramer.CramerTreeResult>


> <FORMULA>


> <toxTree.tree.cramer.CramerRules>


$$$$
L-4-HYDROXY-PROLINE
 OpenBabel30120812303D

 11 11  0  0  0  0  0  0  0  0999 V2000
    1.0000    0.0000    0.0000 H   0  0  0  0  0
    2.5000    0.0000    0.0000 C   0  0  0  0  0
    2.9034    0.1217   -1.4396 O   0  0  0  0  0
    3.0599    1.1537    0.8679 C   0  0  0  0  0
    4.4904    0.6582    1.2094 N   0  0  0  0  0
    4.3235   -0.8601    1.4286 C   0  0  0  0  0
    4.1957   -1.1812    2.8882 H   0  0  0  0  0
    3.0578   -1.2782    0.6595 C   0  0  0  0  0
    5.5233   -1.6057    0.9241 C   0  0  0  0  0
    6.6678   -0.8564    0.3087 O   0  0  0  0  0
    5.5786   -3.1005    1.0350 O   0  0  0  0  0
  1  2  1  0  0  0
  2  8  1  0  0  0
  2  4  1  0  0  0
  2  3  1  0  0  0
  4  5  1  0  0  0
  5  6  1  0  0  0
  6  8  1  0  0  0
  6  9  1  0  0  0
  6  7  1  0  0  0
  9 11  1  0  0  0
  9 10  2  0  0  0
M  END
> <SMILES>
[H]C1(O)(CNC([H])(C1)C(=O)O)

> <NAME>
L-4-HYDROXY-PROLINE

> <BioCyc_link>
http://biocyc.org/HUMAN/NEW-IMAGE?object=L-4-HYDROXY-PROLINE

> <BioCyc_name_HTML>
L-4-hydroxy-proline

> <CAS>
51-35-4

> <KEGG_ID>
C03440

> <toxTree.tree.cramer.CramerTreeResult>


> <FORMULA>


> <toxTree.tree.cramer.CramerRules>


$$$$
RETINOL
 OpenBabel30120812303D

 21 21  0  0  0  0  0  0  0  0999 V2000
    1.0000    0.0000    0.0000 C   0  0  0  0  0
    2.5000    0.0000    0.0000 C   0  0  0  0  0
    3.2500   -1.2990    0.0000 C   0  0  0  0  0
    2.5000   -2.5981    0.0000 C   0  0  0  0  0
    3.4742   -3.7387    0.0000 O   0  0  0  0  0
    3.2500    1.2990    0.0000 C   0  0  0  0  0
    4.7500    1.2990    0.0000 C   0  0  0  0  0
    5.5000    2.5981    0.0000 C   0  0  0  0  0
    7.0000    2.5981    0.0000 C   0  0  0  0  0
    7.7500    1.2990    0.0000 C   0  0  0  0  0
    7.7500    3.8971    0.0000 C   0  0  0  0  0
    9.2500    3.8971    0.0000 C   0  0  0  0  0
   10.0000    5.1962    0.0000 C   0  0  0  0  0
    9.3347    6.3886    0.0115 C   0  0  0  0  0
    7.8352    6.4182    0.0371 C   0  0  0  0  0
   10.0467    7.5543   -0.0005 C   0  0  0  0  0
   11.3893    7.5535   -0.0116 C   0  0  0  0  0
   12.0991    6.4119   -0.0176 C   0  0  0  0  0
   11.4696    5.2177   -0.0124 C   0  0  0  0  0
   11.8119    4.6414   -1.3543 C   0  0  0  0  0
   11.9713    4.4156    1.1516 C   0  0  0  0  0
  1  2  1  0  0  0
  2  6  1  0  0  0
  2  3  2  0  0  0
  3  4  1  0  0  0
  4  5  1  0  0  0
  6  7  2  0  0  0
  7  8  1  0  0  0
  8  9  2  0  0  0
  9 11  1  0  0  0
  9 10  1  0  0  0
 11 12  2  0  0  0
 12 13  1  0  0  0
 13 19  1  0  0  0
 13 14  2  0  0  0
 14 16  1  0  0  0
 14 15  1  0  0  0
 16 17  1  0  0  0
 17 18  1  0  0  0
 18 19  1  0  0  0
 19 21  1  0  0  0
 19 20  1  0  0  0
M  END
> <SMILES>
CC(=CCO)C=CC=C(C)C=CC1=C(C)CCCC1(C)(C)

> <NAME>
RETINOL

> <BioCyc_link>
http://biocyc.org/HUMAN/NEW-IMAGE?object=RETINOL

> <BioCyc_name_HTML>
retinol

> <CAS>
11103-57-4

> <KEGG_ID>
C00473

> <toxTree.tree.cramer.CramerTreeResult>


> <FORMULA>


> <toxTree.tree.cramer.CramerRules>


$$$$
RETINAL
 OpenBabel30120812303D

 21 21  0  0  0  0  0  0  0  0999 V2000
    1.0000    0.0000    0.0000 C   0  0  0  0  0
    2.5000    0.0000    0.0000 C   0  0  0  0  0
    3.2500   -1.2990    0.0000 C   0  0  0  0  0
    2.5000   -2.5981    0.0000 C   0  0  0  0  0
    3.2500   -3.8971    0.0000 O   0  0  0  0  0
    3.2500    1.2990    0.0000 C   0  0  0  0  0
    4.7500    1.2990    0.0000 C   0  0  0  0  0
    5.5000    2.5981    0.0000 C   0  0  0  0  0
    7.0000    2.5981    0.0000 C   0  0  0  0  0
    7.7500    1.2990    0.0000 C   0  0  0  0  0
    7.7500    3.8971    0.0000 C   0  0  0  0  0
    9.2500    3.8971    0.0000 C   0  0  0  0  0
   10.0000    5.1962    0.0000 C   0  0  0  0  0
    9.3347    6.3886    0.0115 C   0  0  0  0  0
    7.8352    6.4182    0.0371 C   0  0  0  0  0
   10.0467    7.5543   -0.0005 C   0  0  0  0  0
   11.3893    7.5535   -0.0116 C   0  0  0  0  0
   12.0991    6.4119   -0.0176 C   0  0  0  0  0
   11.4696    5.2177   -0.0124 C   0  0  0  0  0
   11.8119    4.6414   -1.3543 C   0  0  0  0  0
   11.9713    4.4156    1.1516 C   0  0  0  0  0
  1  2  1  0  0  0
  2  6  1  0  0  0
  2  3  2  0  0  0
  3  4  1  0  0  0
  4  5  2  0  0  0
  6  7  2  0  0  0
  7  8  1  0  0  0
  8  9  2  0  0  0
  9 11  1  0  0  0
  9 10  1  0  0  0
 11 12  2  0  0  0
 12 13  1  0  0  0
 13 19  1  0  0  0
 13 14  2  0  0  0
 14 16  1  0  0  0
 14 15  1  0  0  0
 16 17  1  0  0  0
 17 18  1  0  0  0
 18 19  1  0  0  0
 19 21  1  0  0  0
 19 20  1  0  0  0
M  END
> <SMILES>
CC(=CC=O)C=CC=C(C)C=CC1=C(C)CCCC1(C)(C)

> <NAME>
RETINAL

> <BioCyc_link>
http://biocyc.org/HUMAN/NEW-IMAGE?object=RETINAL

> <BioCyc_name_HTML>
retinal

> <CAS>
116-31-4

> <KEGG_ID>
C00376

> <toxTree.tree.cramer.CramerTreeResult>


> <FORMULA>


> <toxTree.tree.cramer.CramerRules>


$$$$
MYO-INOSITOL
 OpenBabel30120812303D

 12 12  0  0  0  0  0  0  0  0999 V2000
    1.0000    0.0000    0.0000 O   0  0  0  0  0
    2.5000    0.0000    0.0000 C   0  0  0  0  0
    3.0315   -1.3200   -0.5633 C   0  0  0  0  0
    2.5069   -2.4752    0.2370 O   0  0  0  0  0
    2.6379   -1.4463   -1.9315 C   0  0  0  0  0
    3.0711   -2.7838   -2.4545 O   0  0  0  0  0
    3.1450   -0.4160   -2.7815 C   0  0  0  0  0
    4.6449   -0.4238   -2.7694 O   0  0  0  0  0
    2.6181    0.9406   -2.3079 C   0  0  0  0  0
    3.1588    2.0403   -3.1730 O   0  0  0  0  0
    3.0321    1.1590   -0.8492 C   0  0  0  0  0
    4.5256    1.2439   -0.7383 O   0  0  0  0  0
  1  2  1  0  0  0
  2 11  1  0  0  0
  2  3  1  0  0  0
  3  5  1  0  0  0
  3  4  1  0  0  0
  5  7  1  0  0  0
  5  6  1  0  0  0
  7  9  1  0  0  0
  7  8  1  0  0  0
  9 11  1  0  0  0
  9 10  1  0  0  0
 11 12  1  0  0  0
M  END
> <SMILES>
OC1C(O)C(O)C(O)C(O)C1(O)

> <NAME>
MYO-INOSITOL

> <BioCyc_link>
http://biocyc.org/HUMAN/NEW-IMAGE?object=MYO-INOSITOL

> <BioCyc_name_HTML>
<I>myo</I>-inositol

> <CAS>
87-89-8

> <KEGG_ID>
C00137

> <toxTree.tree.cramer.CramerTreeResult>


> <FORMULA>


> <toxTree.tree.cramer.CramerRules>


$$$$
34-DIHYDROXYPHENYLACETALDEHYDE
 OpenBabel30120812303D

 11 11  0  0  0  0  0  0  0  0999 V2000
    1.0000    0.0000    0.0000 O   0  0  0  0  0
    2.5000    0.0000    0.0000 C   0  0  0  0  0
    3.2500    1.2990    0.0000 C   0  0  0  0  0
    4.7249    1.0257    0.0000 C   0  0  0  0  0
    5.1835   -0.2749   -0.0016 C   0  0  0  0  0
    6.5565   -0.5286    0.0105 C   0  0  0  0  0
    7.4563    0.5385    0.0182 C   0  0  0  0  0
    8.9331    0.2763    0.0312 O   0  0  0  0  0
    6.9845    1.8343    0.0137 C   0  0  0  0  0
    7.9505    2.9819    0.0219 O   0  0  0  0  0
    5.6221    2.0791    0.0016 C   0  0  0  0  0
  1  2  2  0  0  0
  2  3  1  0  0  0
  3  4  1  0  0  0
  4 11  2  0  0  0
  4  5  1  0  0  0
  5  6  2  0  0  0
  6  7  1  0  0  0
  7  9  2  0  0  0
  7  8  1  0  0  0
  9 11  1  0  0  0
  9 10  1  0  0  0
M  END
> <SMILES>
O=CCC=1C=CC(O)=C(O)C=1

> <NAME>
34-DIHYDROXYPHENYLACETALDEHYDE

> <BioCyc_link>
http://biocyc.org/HUMAN/NEW-IMAGE?object=34-DIHYDROXYPHENYLACETALDEHYDE

> <BioCyc_name_HTML>
3,4-dihydroxyphenylacetaldehyde

> <CAS>


> <KEGG_ID>
C04043

> <toxTree.tree.cramer.CramerTreeResult>


> <FORMULA>


> <toxTree.tree.cramer.CramerRules>


$$$$
4-hydroxybenzoate
 OpenBabel30120812303D

 10 10  0  0  0  0  0  0  0  0999 V2000
    1.0000    0.0000    0.0000 O   0  0  0  0  0
    2.5000    0.0000    0.0000 C   0  0  0  0  0
    3.1879   -1.1952   -0.0000 C   0  0  0  0  0
    4.5842   -1.1944    0.0121 C   0  0  0  0  0
    5.2744    0.0187    0.0181 C   0  0  0  0  0
    4.5744    1.2069    0.0121 C   0  0  0  0  0
    3.1903    1.1993    0.0000 C   0  0  0  0  0
    6.7743    0.0301    0.0312 C   0  0  0  0  0
    7.5341   -1.2633    0.0378 O   0  0  0  0  0
    7.5145    1.3347    0.0376 O   0  0  0  0  0
  1  2  1  0  0  0
  2  7  2  0  0  0
  2  3  1  0  0  0
  3  4  2  0  0  0
  4  5  1  0  0  0
  5  6  2  0  0  0
  5  8  1  0  0  0
  6  7  1  0  0  0
  8 10  1  0  0  0
  8  9  2  0  0  0
M  END
> <SMILES>
OC=1C=CC(=CC=1)C(=O)O

> <NAME>
4-hydroxybenzoate

> <BioCyc_link>
http://biocyc.org/HUMAN/NEW-IMAGE?object=4-hydroxybenzoate

> <BioCyc_name_HTML>
4-hydroxybenzoate

> <CAS>
99-96-7

> <KEGG_ID>
C00156

> <toxTree.tree.cramer.CramerTreeResult>


> <FORMULA>


> <toxTree.tree.cramer.CramerRules>


$$$$
CPD-782
 OpenBabel30120812303D

 12 12  0  0  0  0  0  0  0  0999 V2000
    1.0000    0.0000    0.0000 O   0  0  0  0  0
    2.5000    0.0000    0.0000 C   0  0  0  0  0
    3.2500   -1.2990    0.0000 O   0  0  0  0  0
    3.2500    1.2990    0.0000 C   0  0  0  0  0
    4.7249    1.0257    0.0000 C   0  0  0  0  0
    5.1835   -0.2749   -0.0016 C   0  0  0  0  0
    6.5565   -0.5286    0.0105 C   0  0  0  0  0
    7.4563    0.5385    0.0182 C   0  0  0  0  0
    8.9331    0.2763    0.0312 O   0  0  0  0  0
    6.9845    1.8343    0.0137 C   0  0  0  0  0
    7.9505    2.9819    0.0219 O   0  0  0  0  0
    5.6221    2.0791    0.0016 C   0  0  0  0  0
  1  2  2  0  0  0
  2  4  1  0  0  0
  2  3  1  0  0  0
  4  5  1  0  0  0
  5 12  2  0  0  0
  5  6  1  0  0  0
  6  7  2  0  0  0
  7  8  1  0  0  0
  8 10  2  0  0  0
  8  9  1  0  0  0
 10 12  1  0  0  0
 10 11  1  0  0  0
M  END
> <SMILES>
O=C(O)CC=1C=CC(O)=C(O)C=1

> <NAME>
CPD-782

> <BioCyc_link>
http://biocyc.org/HUMAN/NEW-IMAGE?object=CPD-782

> <BioCyc_name_HTML>
3,4-dihydroxyphenylacetate

> <CAS>
102-32-9

> <KEGG_ID>
C01161

> <toxTree.tree.cramer.CramerTreeResult>


> <FORMULA>


> <toxTree.tree.cramer.CramerRules>


$$$$
HOMOGENTISATE
 OpenBabel30120812303D

 12 12  0  0  0  0  0  0  0  0999 V2000
    1.0000    0.0000    0.0000 O   0  0  0  0  0
    2.5000    0.0000    0.0000 C   0  0  0  0  0
    3.2500   -1.2990    0.0000 O   0  0  0  0  0
    3.2500    1.2990    0.0000 C   0  0  0  0  0
    4.7249    1.0257    0.0000 C   0  0  0  0  0
    5.1835   -0.2749   -0.0016 C   0  0  0  0  0
    6.5565   -0.5286    0.0105 C   0  0  0  0  0
    7.0620   -1.9408    0.0153 O   0  0  0  0  0
    7.4563    0.5385    0.0182 C   0  0  0  0  0
    6.9845    1.8343    0.0137 C   0  0  0  0  0
    5.6221    2.0791    0.0016 C   0  0  0  0  0
    5.1167    3.4913   -0.0097 O   0  0  0  0  0
  1  2  2  0  0  0
  2  4  1  0  0  0
  2  3  1  0  0  0
  4  5  1  0  0  0
  5 11  2  0  0  0
  5  6  1  0  0  0
  6  7  2  0  0  0
  7  9  1  0  0  0
  7  8  1  0  0  0
  9 10  2  0  0  0
 10 11  1  0  0  0
 11 12  1  0  0  0
M  END
> <SMILES>
O=C(O)CC=1C=C(O)C=CC=1(O)

> <NAME>
HOMOGENTISATE

> <BioCyc_link>
http://biocyc.org/HUMAN/NEW-IMAGE?object=HOMOGENTISATE

> <BioCyc_name_HTML>
homogentisate

> <CAS>


> <KEGG_ID>
C00544

> <toxTree.tree.cramer.CramerTreeResult>


> <FORMULA>


> <toxTree.tree.cramer.CramerRules>


$$$$
P-HYDROXY-PHENYLPYRUVATE
 OpenBabel30120812303D

 13 13  0  0  0  0  0  0  0  0999 V2000
    1.0000    0.0000    0.0000 O   0  0  0  0  0
    2.5000    0.0000    0.0000 C   0  0  0  0  0
    3.1879   -1.1952   -0.0000 C   0  0  0  0  0
    4.5842   -1.1944    0.0121 C   0  0  0  0  0
    5.2744    0.0187    0.0181 C   0  0  0  0  0
    4.5744    1.2069    0.0121 C   0  0  0  0  0
    3.1903    1.1993    0.0000 C   0  0  0  0  0
    6.7743    0.0301    0.0312 C   0  0  0  0  0
    7.2643    1.4478    0.0354 C   0  0  0  0  0
    6.2816    2.5810    0.0269 O   0  0  0  0  0
    8.7370    1.7323    0.0482 C   0  0  0  0  0
    9.7198    0.5991    0.0568 O   0  0  0  0  0
    9.2270    3.1500    0.0525 O   0  0  0  0  0
  1  2  1  0  0  0
  2  7  2  0  0  0
  2  3  1  0  0  0
  3  4  2  0  0  0
  4  5  1  0  0  0
  5  6  2  0  0  0
  5  8  1  0  0  0
  6  7  1  0  0  0
  8  9  1  0  0  0
  9 11  1  0  0  0
  9 10  2  0  0  0
 11 13  1  0  0  0
 11 12  2  0  0  0
M  END
> <SMILES>
OC=1C=CC(=CC=1)CC(=O)C(=O)O

> <NAME>
P-HYDROXY-PHENYLPYRUVATE

> <BioCyc_link>
http://biocyc.org/HUMAN/NEW-IMAGE?object=P-HYDROXY-PHENYLPYRUVATE

> <BioCyc_name_HTML>
4-hydroxyphenylpyruvate

> <CAS>
156-39-8

> <KEGG_ID>
C01179

> <toxTree.tree.cramer.CramerTreeResult>


> <FORMULA>


> <toxTree.tree.cramer.CramerRules>


$$$$
PHENYL-PYRUVATE
 OpenBabel30120812303D

 12 12  0  0  0  0  0  0  0  0999 V2000
    1.0000    0.0000    0.0000 O   0  0  0  0  0
    2.5000    0.0000    0.0000 C   0  0  0  0  0
    3.2500   -1.2990    0.0000 O   0  0  0  0  0
    3.2500    1.2990    0.0000 C   0  0  0  0  0
    2.5000    2.5981    0.0000 O   0  0  0  0  0
    4.7500    1.2990    0.0000 C   0  0  0  0  0
    5.2507    2.7130    0.0000 C   0  0  0  0  0
    6.6068    2.9625    0.0245 C   0  0  0  0  0
    7.0720    4.2790    0.0366 C   0  0  0  0  0
    6.1590    5.3346    0.0177 C   0  0  0  0  0
    4.8057    5.0713   -0.0127 C   0  0  0  0  0
    4.3510    3.7640   -0.0246 C   0  0  0  0  0
  1  2  2  0  0  0
  2  4  1  0  0  0
  2  3  1  0  0  0
  4  6  1  0  0  0
  4  5  2  0  0  0
  6  7  1  0  0  0
  7 12  1  0  0  0
  7  8  2  0  0  0
  8  9  1  0  0  0
  9 10  2  0  0  0
 10 11  1  0  0  0
 11 12  2  0  0  0
M  END
> <SMILES>
O=C(O)C(=O)CC1=CC=CC=C1

> <NAME>
PHENYL-PYRUVATE

> <BioCyc_link>
http://biocyc.org/HUMAN/NEW-IMAGE?object=PHENYL-PYRUVATE

> <BioCyc_name_HTML>
phenylpyruvate

> <CAS>
156-06-9

> <KEGG_ID>
C00166

> <toxTree.tree.cramer.CramerTreeResult>


> <FORMULA>


> <toxTree.tree.cramer.CramerRules>


$$$$
PROPANE-1-2-DIOL
 OpenBabel30120812303D

  5  4  0  0  0  0  0  0  0  0999 V2000
    1.0000    0.0000    0.0000 C   0  0  0  0  0
    2.5000    0.0000    0.0000 C   0  0  0  0  0
    3.0193   -0.7348   -1.2002 O   0  0  0  0  0
    3.0007    1.4140    0.0000 C   0  0  0  0  0
    4.5007    1.4140    0.0000 O   0  0  0  0  0
  1  2  1  0  0  0
  2  4  1  0  0  0
  2  3  1  0  0  0
  4  5  1  0  0  0
M  END
> <SMILES>
CC(O)CO

> <NAME>
PROPANE-1-2-DIOL

> <BioCyc_link>
http://biocyc.org/HUMAN/NEW-IMAGE?object=PROPANE-1-2-DIOL

> <BioCyc_name_HTML>
L-1,2-propanediol

> <CAS>
57-55-6

> <KEGG_ID>
C00583

> <toxTree.tree.cramer.CramerTreeResult>


> <FORMULA>


> <toxTree.tree.cramer.CramerRules>


$$$$
PROPIONATE
 OpenBabel30120812303D

  5  4  0  0  0  0  0  0  0  0999 V2000
    1.0000    0.0000    0.0000 C   0  0  0  0  0
    2.5000    0.0000    0.0000 C   0  0  0  0  0
    3.0007    1.4140    0.0000 C   0  0  0  0  0
    2.0265    2.5546    0.0000 O   0  0  0  0  0
    4.4756    1.6873    0.0000 O   0  0  0  0  0
  1  2  1  0  0  0
  2  3  1  0  0  0
  3  5  1  0  0  0
  3  4  2  0  0  0
M  END
> <SMILES>
CCC(=O)O

> <NAME>
PROPIONATE

> <BioCyc_link>
http://biocyc.org/HUMAN/NEW-IMAGE?object=PROPIONATE

> <BioCyc_name_HTML>
propionate

> <CAS>
79-09-4

> <KEGG_ID>
C00163

> <toxTree.tree.cramer.CramerTreeResult>


> <FORMULA>


> <toxTree.tree.cramer.CramerRules>


$$$$
PYRUVATE
 OpenBabel30120812303D

  6  5  0  0  0  0  0  0  0  0999 V2000
    1.0000    0.0000    0.0000 C   0  0  0  0  0
    2.5000    0.0000    0.0000 C   0  0  0  0  0
    3.2500   -1.2990    0.0000 O   0  0  0  0  0
    3.2500    1.2990    0.0000 C   0  0  0  0  0
    2.5000    2.5981    0.0000 O   0  0  0  0  0
    4.7500    1.2990    0.0000 O   0  0  0  0  0
  1  2  1  0  0  0
  2  4  1  0  0  0
  2  3  2  0  0  0
  4  6  1  0  0  0
  4  5  2  0  0  0
M  END
> <SMILES>
CC(=O)C(=O)O

> <NAME>
PYRUVATE

> <BioCyc_link>
http://biocyc.org/HUMAN/NEW-IMAGE?object=PYRUVATE

> <BioCyc_name_HTML>
pyruvate

> <CAS>
127-17-3

> <KEGG_ID>
C00022

> <toxTree.tree.cramer.CramerTreeResult>


> <FORMULA>


> <toxTree.tree.cramer.CramerRules>


$$$$
L-LACTATE
 OpenBabel30120812303D

  7  6  0  0  0  0  0  0  0  0999 V2000
    1.0000    0.0000    0.0000 H   0  0  0  0  0
    2.5000    0.0000    0.0000 C   0  0  0  0  0
    2.9931   -0.6977    1.2329 C   0  0  0  0  0
    3.0193   -0.7348   -1.2002 O   0  0  0  0  0
    3.0007    1.4140    0.0000 C   0  0  0  0  0
    2.0265    2.5546    0.0000 O   0  0  0  0  0
    4.4756    1.6873    0.0000 O   0  0  0  0  0
  1  2  1  0  0  0
  2  5  1  0  0  0
  2  4  1  0  0  0
  2  3  1  0  0  0
  5  7  1  0  0  0
  5  6  2  0  0  0
M  END
> <SMILES>
[H]C(C)(O)C(=O)O

> <NAME>
L-LACTATE

> <BioCyc_link>
http://biocyc.org/HUMAN/NEW-IMAGE?object=L-LACTATE

> <BioCyc_name_HTML>
L-lactate

> <CAS>
79-33-4

> <KEGG_ID>
C00186

> <toxTree.tree.cramer.CramerTreeResult>


> <FORMULA>


> <toxTree.tree.cramer.CramerRules>


$$$$
SUC
 OpenBabel30120812303D

  8  7  0  0  0  0  0  0  0  0999 V2000
    1.0000    0.0000    0.0000 O   0  0  0  0  0
    2.5000    0.0000    0.0000 C   0  0  0  0  0
    3.2500   -1.2990    0.0000 O   0  0  0  0  0
    3.2500    1.2990    0.0000 C   0  0  0  0  0
    4.7249    1.0257    0.0000 C   0  0  0  0  0
    5.4749    2.3247    0.0000 C   0  0  0  0  0
    4.7249    3.6238    0.0000 O   0  0  0  0  0
    6.9749    2.3247    0.0000 O   0  0  0  0  0
  1  2  2  0  0  0
  2  4  1  0  0  0
  2  3  1  0  0  0
  4  5  1  0  0  0
  5  6  1  0  0  0
  6  8  1  0  0  0
  6  7  2  0  0  0
M  END
> <SMILES>
O=C(O)CCC(=O)O

> <NAME>
SUC

> <BioCyc_link>
http://biocyc.org/HUMAN/NEW-IMAGE?object=SUC

> <BioCyc_name_HTML>
succinate

> <CAS>
110-15-6

> <KEGG_ID>
C00042

> <toxTree.tree.cramer.CramerTreeResult>


> <FORMULA>


> <toxTree.tree.cramer.CramerRules>


$$$$
SUCC-S-ALD
 OpenBabel30120812303D

  7  6  0  0  0  0  0  0  0  0999 V2000
    1.0000    0.0000    0.0000 O   0  0  0  0  0
    2.5000    0.0000    0.0000 C   0  0  0  0  0
    3.2500    1.2990    0.0000 C   0  0  0  0  0
    4.7249    1.0257    0.0000 C   0  0  0  0  0
    5.4749    2.3247    0.0000 C   0  0  0  0  0
    4.7249    3.6238    0.0000 O   0  0  0  0  0
    6.9749    2.3247    0.0000 O   0  0  0  0  0
  1  2  2  0  0  0
  2  3  1  0  0  0
  3  4  1  0  0  0
  4  5  1  0  0  0
  5  7  1  0  0  0
  5  6  2  0  0  0
M  END
> <SMILES>
O=CCCC(=O)O

> <NAME>
SUCC-S-ALD

> <BioCyc_link>
http://biocyc.org/HUMAN/NEW-IMAGE?object=SUCC-S-ALD

> <BioCyc_name_HTML>
succinate

> <CAS>
692-29-5

> <KEGG_ID>
C00232

> <toxTree.tree.cramer.CramerTreeResult>


> <FORMULA>


> <toxTree.tree.cramer.CramerRules>


$$$$
4-AMINO-BUTYRALDEHYDE
 OpenBabel30120812303D

  6  5  0  0  0  0  0  0  0  0999 V2000
    1.0000    0.0000    0.0000 N   0  0  0  0  0
    2.5000    0.0000    0.0000 C   0  0  0  0  0
    3.0007    1.4140    0.0000 C   0  0  0  0  0
    4.5007    1.4140    0.0000 C   0  0  0  0  0
    5.0014    2.8279    0.0000 C   0  0  0  0  0
    6.4763    3.1013    0.0000 O   0  0  0  0  0
  1  2  1  0  0  0
  2  3  1  0  0  0
  3  4  1  0  0  0
  4  5  1  0  0  0
  5  6  2  0  0  0
M  END
> <SMILES>
NCCCC=O

> <NAME>
4-AMINO-BUTYRALDEHYDE

> <BioCyc_link>
http://biocyc.org/HUMAN/NEW-IMAGE?object=4-AMINO-BUTYRALDEHYDE

> <BioCyc_name_HTML>
4-aminobutanal

> <CAS>
4390-05-0

> <KEGG_ID>
C00555

> <toxTree.tree.cramer.CramerTreeResult>


> <FORMULA>


> <toxTree.tree.cramer.CramerRules>


$$$$
4-AMINO-BUTYRATE
 OpenBabel30120812303D

  7  6  0  0  0  0  0  0  0  0999 V2000
    1.0000    0.0000    0.0000 N   0  0  0  0  0
    2.5000    0.0000    0.0000 C   0  0  0  0  0
    3.0007    1.4140    0.0000 C   0  0  0  0  0
    4.5007    1.4140    0.0000 C   0  0  0  0  0
    5.0014    2.8279    0.0000 C   0  0  0  0  0
    4.0272    3.9685    0.0000 O   0  0  0  0  0
    6.4763    3.1013    0.0000 O   0  0  0  0  0
  1  2  1  0  0  0
  2  3  1  0  0  0
  3  4  1  0  0  0
  4  5  1  0  0  0
  5  7  1  0  0  0
  5  6  2  0  0  0
M  END
> <SMILES>
NCCCC(=O)O

> <NAME>
4-AMINO-BUTYRATE

> <BioCyc_link>
http://biocyc.org/HUMAN/NEW-IMAGE?object=4-AMINO-BUTYRATE

> <BioCyc_name_HTML>
4-aminobutyrate

> <CAS>
56-12-2

> <KEGG_ID>
C00334

> <toxTree.tree.cramer.CramerTreeResult>


> <FORMULA>


> <toxTree.tree.cramer.CramerRules>


$$$$
4-METHYLPENTANAL
 OpenBabel30120812303D

  7  6  0  0  0  0  0  0  0  0999 V2000
    1.0000    0.0000    0.0000 C   0  0  0  0  0
    2.5000    0.0000    0.0000 C   0  0  0  0  0
    3.0193   -0.7348   -1.2002 C   0  0  0  0  0
    3.0007    1.4140    0.0000 C   0  0  0  0  0
    4.5007    1.4140    0.0000 C   0  0  0  0  0
    5.0014    2.8279    0.0000 C   0  0  0  0  0
    6.4763    3.1013    0.0000 O   0  0  0  0  0
  1  2  1  0  0  0
  2  4  1  0  0  0
  2  3  1  0  0  0
  4  5  1  0  0  0
  5  6  1  0  0  0
  6  7  2  0  0  0
M  END
> <SMILES>
CC(C)CCC=O

> <NAME>
4-METHYLPENTANAL

> <BioCyc_link>
http://biocyc.org/HUMAN/NEW-IMAGE?object=4-METHYLPENTANAL

> <BioCyc_name_HTML>
4-methylpentanal

> <CAS>
1119-16-0

> <KEGG_ID>
C02373

> <toxTree.tree.cramer.CramerTreeResult>


> <FORMULA>


> <toxTree.tree.cramer.CramerRules>


$$$$
ACET
 OpenBabel30120812303D

  4  3  0  0  0  0  0  0  0  0999 V2000
    1.0000    0.0000    0.0000 C   0  0  0  0  0
    2.5000    0.0000    0.0000 C   0  0  0  0  0
    3.2500   -1.2990    0.0000 O   0  0  0  0  0
    3.2500    1.2990    0.0000 O   0  0  0  0  0
  1  2  1  0  0  0
  2  4  1  0  0  0
  2  3  2  0  0  0
M  END
> <SMILES>
CC(=O)O

> <NAME>
ACET

> <BioCyc_link>
http://biocyc.org/HUMAN/NEW-IMAGE?object=ACET

> <BioCyc_name_HTML>
acetate

> <CAS>
71-50-1

> <KEGG_ID>
C00033

> <toxTree.tree.cramer.CramerTreeResult>


> <FORMULA>


> <toxTree.tree.cramer.CramerRules>


$$$$
ACETALD
 OpenBabel30120812303D

  3  2  0  0  0  0  0  0  0  0999 V2000
    1.0000    0.0000    0.0000 C   0  0  0  0  0
    2.5000    0.0000    0.0000 C   0  0  0  0  0
    3.2500    1.2990    0.0000 O   0  0  0  0  0
  1  2  1  0  0  0
  2  3  2  0  0  0
M  END
> <SMILES>
CC=O

> <NAME>
ACETALD

> <BioCyc_link>
http://biocyc.org/HUMAN/NEW-IMAGE?object=ACETALD

> <BioCyc_name_HTML>
acetaldehyde

> <CAS>
75-07-0

> <KEGG_ID>
C00084

> <toxTree.tree.cramer.CramerTreeResult>


> <FORMULA>


> <toxTree.tree.cramer.CramerRules>


$$$$
AMINO-ACETONE
 OpenBabel30120812303D

  5  4  0  0  0  0  0  0  0  0999 V2000
    1.0000    0.0000    0.0000 C   0  0  0  0  0
    2.5000    0.0000    0.0000 C   0  0  0  0  0
    3.2500   -1.2990    0.0000 O   0  0  0  0  0
    3.2500    1.2990    0.0000 C   0  0  0  0  0
    4.7249    1.0257    0.0000 N   0  0  0  0  0
  1  2  1  0  0  0
  2  4  1  0  0  0
  2  3  2  0  0  0
  4  5  1  0  0  0
M  END
> <SMILES>
CC(=O)CN

> <NAME>
AMINO-ACETONE

> <BioCyc_link>
http://biocyc.org/HUMAN/NEW-IMAGE?object=AMINO-ACETONE

> <BioCyc_name_HTML>
aminoacetone

> <CAS>
298-08-8

> <KEGG_ID>
C01888

> <toxTree.tree.cramer.CramerTreeResult>


> <FORMULA>


> <toxTree.tree.cramer.CramerRules>


$$$$
B-ALANINE
 OpenBabel30120812303D

  6  5  0  0  0  0  0  0  0  0999 V2000
    1.0000    0.0000    0.0000 N   0  0  0  0  0
    2.5000    0.0000    0.0000 C   0  0  0  0  0
    3.0007    1.4140    0.0000 C   0  0  0  0  0
    4.5007    1.4140    0.0000 C   0  0  0  0  0
    5.2507    0.1149    0.0000 O   0  0  0  0  0
    5.2507    2.7130    0.0000 O   0  0  0  0  0
  1  2  1  0  0  0
  2  3  1  0  0  0
  3  4  1  0  0  0
  4  6  1  0  0  0
  4  5  2  0  0  0
M  END
> <SMILES>
NCCC(=O)O

> <NAME>
B-ALANINE

> <BioCyc_link>
http://biocyc.org/HUMAN/NEW-IMAGE?object=B-ALANINE

> <BioCyc_name_HTML>
&beta;-alanine

> <CAS>
107-95-9

> <KEGG_ID>
C00099

> <toxTree.tree.cramer.CramerTreeResult>


> <FORMULA>


> <toxTree.tree.cramer.CramerRules>


$$$$
BUTYRIC_ACID
 OpenBabel30120812303D

  6  5  0  0  0  0  0  0  0  0999 V2000
    1.0000    0.0000    0.0000 C   0  0  0  0  0
    2.5000    0.0000    0.0000 C   0  0  0  0  0
    3.0007    1.4140    0.0000 C   0  0  0  0  0
    4.5007    1.4140    0.0000 C   0  0  0  0  0
    5.2507    0.1149    0.0000 O   0  0  0  0  0
    5.2507    2.7130    0.0000 O   0  0  0  0  0
  1  2  1  0  0  0
  2  3  1  0  0  0
  3  4  1  0  0  0
  4  6  1  0  0  0
  4  5  2  0  0  0
M  END
> <SMILES>
CCCC(=O)O

> <NAME>
BUTYRIC_ACID

> <BioCyc_link>
http://biocyc.org/HUMAN/NEW-IMAGE?object=BUTYRIC_ACID

> <BioCyc_name_HTML>
butyrate

> <CAS>
107-92-6

> <KEGG_ID>
C00246

> <toxTree.tree.cramer.CramerTreeResult>


> <FORMULA>


> <toxTree.tree.cramer.CramerRules>


$$$$
FORMATE
 OpenBabel30120812303D

  3  2  0  0  0  0  0  0  0  0999 V2000
    1.0000    0.0000    0.0000 O   0  0  0  0  0
    2.5000    0.0000    0.0000 C   0  0  0  0  0
    3.2500    1.2990    0.0000 O   0  0  0  0  0
  1  2  2  0  0  0
  2  3  1  0  0  0
M  END
> <SMILES>
O=CO

> <NAME>
FORMATE

> <BioCyc_link>
http://biocyc.org/HUMAN/NEW-IMAGE?object=FORMATE

> <BioCyc_name_HTML>
formate

> <CAS>
64-18-6

> <KEGG_ID>
C00058

> <toxTree.tree.cramer.CramerTreeResult>


> <FORMULA>


> <toxTree.tree.cramer.CramerRules>


$$$$
GLYCERATE
 OpenBabel30120812303D

  8  7  0  0  0  0  0  0  0  0999 V2000
    1.0000    0.0000    0.0000 H   0  0  0  0  0
    2.5000    0.0000    0.0000 C   0  0  0  0  0
    2.9931   -0.6977    1.2329 O   0  0  0  0  0
    3.0193   -0.7348   -1.2002 C   0  0  0  0  0
    2.5089   -2.1452   -1.1833 O   0  0  0  0  0
    3.0007    1.4140    0.0000 C   0  0  0  0  0
    2.0265    2.5546    0.0000 O   0  0  0  0  0
    4.4756    1.6873    0.0000 O   0  0  0  0  0
  1  2  1  0  0  0
  2  6  1  0  0  0
  2  4  1  0  0  0
  2  3  1  0  0  0
  4  5  1  0  0  0
  6  8  1  0  0  0
  6  7  2  0  0  0
M  END
> <SMILES>
[H]C(O)(CO)C(=O)O

> <NAME>
GLYCERATE

> <BioCyc_link>
http://biocyc.org/HUMAN/NEW-IMAGE?object=GLYCERATE

> <BioCyc_name_HTML>
<i>D</i>-glycerate

> <CAS>
6000-40-4

> <KEGG_ID>
C00258

> <toxTree.tree.cramer.CramerTreeResult>


> <FORMULA>


> <toxTree.tree.cramer.CramerRules>


$$$$
2-KETO-3-METHYL-VALERATE
 OpenBabel30120812303D

 10  9  0  0  0  0  0  0  0  0999 V2000
    1.0000    0.0000    0.0000 H   0  0  0  0  0
    2.5000    0.0000    0.0000 C   0  0  0  0  0
    2.9931   -0.6977    1.2329 C   0  0  0  0  0
    3.0193   -0.7348   -1.2002 C   0  0  0  0  0
    2.5089   -2.1452   -1.1833 C   0  0  0  0  0
    3.0007    1.4140    0.0000 C   0  0  0  0  0
    2.0265    2.5546    0.0000 O   0  0  0  0  0
    4.4756    1.6873    0.0000 C   0  0  0  0  0
    5.4498    0.5467    0.0000 O   0  0  0  0  0
    4.9763    3.1013    0.0000 O   0  0  0  0  0
  1  2  1  0  0  0
  2  6  1  0  0  0
  2  4  1  0  0  0
  2  3  1  0  0  0
  4  5  1  0  0  0
  6  8  1  0  0  0
  6  7  2  0  0  0
  8 10  1  0  0  0
  8  9  2  0  0  0
M  END
> <SMILES>
[H]C(C)(CC)C(=O)C(=O)O

> <NAME>
2-KETO-3-METHYL-VALERATE

> <BioCyc_link>
http://biocyc.org/HUMAN/NEW-IMAGE?object=2-KETO-3-METHYL-VALERATE

> <BioCyc_name_HTML>
2-keto-3-methyl-valerate

> <CAS>
1460-34-0

> <KEGG_ID>
C00671

> <toxTree.tree.cramer.CramerTreeResult>


> <FORMULA>


> <toxTree.tree.cramer.CramerRules>


$$$$
ARACHIDONIC_ACID
 OpenBabel30120812303D

 22 21  0  0  0  0  0  0  0  0999 V2000
    1.0000    0.0000    0.0000 C   0  0  0  0  0
    2.5000    0.0000    0.0000 C   0  0  0  0  0
    3.0007    1.4140    0.0000 C   0  0  0  0  0
    4.5007    1.4140    0.0000 C   0  0  0  0  0
    5.0014    2.8279    0.0000 C   0  0  0  0  0
    6.5014    2.8279    0.0000 C   0  0  0  0  0
    7.2514    4.1270    0.0000 C   0  0  0  0  0
    8.7514    4.1270    0.0000 C   0  0  0  0  0
    9.2521    5.5409    0.0000 C   0  0  0  0  0
   10.7270    5.8143    0.0000 C   0  0  0  0  0
   11.2277    7.2282    0.0000 C   0  0  0  0  0
   12.7277    7.2282    0.0000 C   0  0  0  0  0
   13.4777    8.5273    0.0000 C   0  0  0  0  0
   14.9777    8.5273    0.0000 C   0  0  0  0  0
   15.4784    9.9412    0.0000 C   0  0  0  0  0
   16.9533   10.2146    0.0000 C   0  0  0  0  0
   17.4540   11.6286    0.0000 C   0  0  0  0  0
   18.9540   11.6286    0.0000 C   0  0  0  0  0
   19.4547   13.0425    0.0000 C   0  0  0  0  0
   20.9547   13.0425    0.0000 C   0  0  0  0  0
   21.7047   11.7435    0.0000 O   0  0  0  0  0
   21.7047   14.3416    0.0000 O   0  0  0  0  0
  1  2  1  0  0  0
  2  3  1  0  0  0
  3  4  1  0  0  0
  4  5  1  0  0  0
  5  6  1  0  0  0
  6  7  2  0  0  0
  7  8  1  0  0  0
  8  9  1  0  0  0
  9 10  2  0  0  0
 10 11  1  0  0  0
 11 12  1  0  0  0
 12 13  2  0  0  0
 13 14  1  0  0  0
 14 15  1  0  0  0
 15 16  2  0  0  0
 16 17  1  0  0  0
 17 18  1  0  0  0
 18 19  1  0  0  0
 19 20  1  0  0  0
 20 22  1  0  0  0
 20 21  2  0  0  0
M  END
> <SMILES>
CCCCCC=CCC=CCC=CCC=CCCCC(=O)O

> <NAME>
ARACHIDONIC_ACID

> <BioCyc_link>
http://biocyc.org/HUMAN/NEW-IMAGE?object=ARACHIDONIC_ACID

> <BioCyc_name_HTML>
arachidonate

> <CAS>
506-32-1

> <KEGG_ID>
C00219

> <toxTree.tree.cramer.CramerTreeResult>


> <FORMULA>


> <toxTree.tree.cramer.CramerRules>


$$$$
FUM
 OpenBabel30120812303D

  8  7  0  0  0  0  0  0  0  0999 V2000
    1.0000    0.0000    0.0000 O   0  0  0  0  0
    2.5000    0.0000    0.0000 C   0  0  0  0  0
    3.2500   -1.2990    0.0000 O   0  0  0  0  0
    3.2500    1.2990    0.0000 C   0  0  0  0  0
    4.7500    1.2990    0.0000 C   0  0  0  0  0
    5.5000    2.5981    0.0000 C   0  0  0  0  0
    4.7500    3.8971    0.0000 O   0  0  0  0  0
    7.0000    2.5981    0.0000 O   0  0  0  0  0
  1  2  2  0  0  0
  2  4  1  0  0  0
  2  3  1  0  0  0
  4  5  2  0  0  0
  5  6  1  0  0  0
  6  8  1  0  0  0
  6  7  2  0  0  0
M  END
> <SMILES>
O=C(O)C=CC(=O)O

> <NAME>
FUM

> <BioCyc_link>
http://biocyc.org/HUMAN/NEW-IMAGE?object=FUM

> <BioCyc_name_HTML>
fumarate

> <CAS>
110-17-8

> <KEGG_ID>
C00122

> <toxTree.tree.cramer.CramerTreeResult>


> <FORMULA>


> <toxTree.tree.cramer.CramerRules>


$$$$
OLEATE-CPD
 OpenBabel30120812303D

 20 19  0  0  0  0  0  0  0  0999 V2000
    1.0000    0.0000    0.0000 C   0  0  0  0  0
    2.5000    0.0000    0.0000 C   0  0  0  0  0
    3.0007    1.4140    0.0000 C   0  0  0  0  0
    4.5007    1.4140    0.0000 C   0  0  0  0  0
    5.0014    2.8279    0.0000 C   0  0  0  0  0
    6.5014    2.8279    0.0000 C   0  0  0  0  0
    7.0021    4.2419    0.0000 C   0  0  0  0  0
    8.5021    4.2419    0.0000 C   0  0  0  0  0
    9.0028    5.6558    0.0000 C   0  0  0  0  0
   10.4777    5.9292    0.0000 C   0  0  0  0  0
   10.9784    7.3432    0.0000 C   0  0  0  0  0
   12.4784    7.3432    0.0000 C   0  0  0  0  0
   12.9791    8.7571    0.0000 C   0  0  0  0  0
   14.4791    8.7571    0.0000 C   0  0  0  0  0
   14.9799   10.1711    0.0000 C   0  0  0  0  0
   16.4799   10.1711    0.0000 C   0  0  0  0  0
   16.9806   11.5851    0.0000 C   0  0  0  0  0
   18.4806   11.5851    0.0000 C   0  0  0  0  0
   19.2306   10.2860    0.0000 O   0  0  0  0  0
   19.2306   12.8841    0.0000 O   0  0  0  0  0
  1  2  1  0  0  0
  2  3  1  0  0  0
  3  4  1  0  0  0
  4  5  1  0  0  0
  5  6  1  0  0  0
  6  7  1  0  0  0
  7  8  1  0  0  0
  8  9  1  0  0  0
  9 10  2  0  0  0
 10 11  1  0  0  0
 11 12  1  0  0  0
 12 13  1  0  0  0
 13 14  1  0  0  0
 14 15  1  0  0  0
 15 16  1  0  0  0
 16 17  1  0  0  0
 17 18  1  0  0  0
 18 20  1  0  0  0
 18 19  2  0  0  0
M  END
> <SMILES>
CCCCCCCCC=CCCCCCCCC(=O)O

> <NAME>
OLEATE-CPD

> <BioCyc_link>
http://biocyc.org/HUMAN/NEW-IMAGE?object=OLEATE-CPD

> <BioCyc_name_HTML>
oleate

> <CAS>
112-80-1

> <KEGG_ID>
C00712

> <toxTree.tree.cramer.CramerTreeResult>


> <FORMULA>


> <toxTree.tree.cramer.CramerRules>


$$$$
2-KETO-ISOVALERATE
 OpenBabel30120812303D

  8  7  0  0  0  0  0  0  0  0999 V2000
    1.0000    0.0000    0.0000 C   0  0  0  0  0
    2.5000    0.0000    0.0000 C   0  0  0  0  0
    3.0193   -0.7348   -1.2002 C   0  0  0  0  0
    3.0007    1.4140    0.0000 C   0  0  0  0  0
    2.0265    2.5546    0.0000 O   0  0  0  0  0
    4.4756    1.6873    0.0000 C   0  0  0  0  0
    5.4498    0.5467    0.0000 O   0  0  0  0  0
    4.9763    3.1013    0.0000 O   0  0  0  0  0
  1  2  1  0  0  0
  2  4  1  0  0  0
  2  3  1  0  0  0
  4  6  1  0  0  0
  4  5  2  0  0  0
  6  8  1  0  0  0
  6  7  2  0  0  0
M  END
> <SMILES>
CC(C)C(=O)C(=O)O

> <NAME>
2-KETO-ISOVALERATE

> <BioCyc_link>
http://biocyc.org/HUMAN/NEW-IMAGE?object=2-KETO-ISOVALERATE

> <BioCyc_name_HTML>
2-keto-isovalerate

> <CAS>
759-05-7

> <KEGG_ID>
C00141

> <toxTree.tree.cramer.CramerTreeResult>


> <FORMULA>


> <toxTree.tree.cramer.CramerRules>


$$$$
2-KETOGLUTARATE
 OpenBabel30120812303D

 10  9  0  0  0  0  0  0  0  0999 V2000
    1.0000    0.0000    0.0000 O   0  0  0  0  0
    2.5000    0.0000    0.0000 C   0  0  0  0  0
    3.2500   -1.2990    0.0000 O   0  0  0  0  0
    3.2500    1.2990    0.0000 C   0  0  0  0  0
    4.7249    1.0257    0.0000 C   0  0  0  0  0
    5.4749    2.3247    0.0000 C   0  0  0  0  0
    4.7249    3.6238    0.0000 O   0  0  0  0  0
    6.9749    2.3247    0.0000 C   0  0  0  0  0
    7.7249    1.0257    0.0000 O   0  0  0  0  0
    7.7249    3.6238    0.0000 O   0  0  0  0  0
  1  2  2  0  0  0
  2  4  1  0  0  0
  2  3  1  0  0  0
  4  5  1  0  0  0
  5  6  1  0  0  0
  6  8  1  0  0  0
  6  7  2  0  0  0
  8 10  1  0  0  0
  8  9  2  0  0  0
M  END
> <SMILES>
O=C(O)CCC(=O)C(=O)O

> <NAME>
2-KETOGLUTARATE

> <BioCyc_link>
http://biocyc.org/HUMAN/NEW-IMAGE?object=2-KETOGLUTARATE

> <BioCyc_name_HTML>
2-ketoglutarate

> <CAS>
328-50-7

> <KEGG_ID>
C00026

> <toxTree.tree.cramer.CramerTreeResult>


> <FORMULA>


> <toxTree.tree.cramer.CramerRules>


$$$$
LINOLENIC_ACID
 OpenBabel30120812303D

 20 19  0  0  0  0  0  0  0  0999 V2000
    1.0000    0.0000    0.0000 C   0  0  0  0  0
    2.5000    0.0000    0.0000 C   0  0  0  0  0
    3.0007    1.4140    0.0000 C   0  0  0  0  0
    4.4756    1.6873    0.0000 C   0  0  0  0  0
    4.9763    3.1013    0.0000 C   0  0  0  0  0
    6.4763    3.1013    0.0000 C   0  0  0  0  0
    7.2263    4.4003    0.0000 C   0  0  0  0  0
    8.7263    4.4003    0.0000 C   0  0  0  0  0
    9.2270    5.8143    0.0000 C   0  0  0  0  0
   10.7019    6.0876    0.0000 C   0  0  0  0  0
   11.2026    7.5016    0.0000 C   0  0  0  0  0
   12.7026    7.5016    0.0000 C   0  0  0  0  0
   13.2033    8.9156    0.0000 C   0  0  0  0  0
   14.7033    8.9156    0.0000 C   0  0  0  0  0
   15.2040   10.3295    0.0000 C   0  0  0  0  0
   16.7040   10.3295    0.0000 C   0  0  0  0  0
   17.2047   11.7435    0.0000 C   0  0  0  0  0
   18.7047   11.7435    0.0000 C   0  0  0  0  0
   19.4547   10.4444    0.0000 O   0  0  0  0  0
   19.4547   13.0425    0.0000 O   0  0  0  0  0
  1  2  1  0  0  0
  2  3  1  0  0  0
  3  4  2  0  0  0
  4  5  1  0  0  0
  5  6  1  0  0  0
  6  7  2  0  0  0
  7  8  1  0  0  0
  8  9  1  0  0  0
  9 10  2  0  0  0
 10 11  1  0  0  0
 11 12  1  0  0  0
 12 13  1  0  0  0
 13 14  1  0  0  0
 14 15  1  0  0  0
 15 16  1  0  0  0
 16 17  1  0  0  0
 17 18  1  0  0  0
 18 20  1  0  0  0
 18 19  2  0  0  0
M  END
> <SMILES>
CCC=CCC=CCC=CCCCCCCCC(=O)O

> <NAME>
LINOLENIC_ACID

> <BioCyc_link>
http://biocyc.org/HUMAN/NEW-IMAGE?object=LINOLENIC_ACID

> <BioCyc_name_HTML>
&alpha;-linolenate

> <CAS>
463-40-1

> <KEGG_ID>
C06427

> <toxTree.tree.cramer.CramerTreeResult>


> <FORMULA>


> <toxTree.tree.cramer.CramerRules>


$$$$
2-OXOBUTANOATE
 OpenBabel30120812303D

  7  6  0  0  0  0  0  0  0  0999 V2000
    1.0000    0.0000    0.0000 C   0  0  0  0  0
    2.5000    0.0000    0.0000 C   0  0  0  0  0
    3.0007    1.4140    0.0000 C   0  0  0  0  0
    2.0265    2.5546    0.0000 O   0  0  0  0  0
    4.4756    1.6873    0.0000 C   0  0  0  0  0
    5.4498    0.5467    0.0000 O   0  0  0  0  0
    4.9763    3.1013    0.0000 O   0  0  0  0  0
  1  2  1  0  0  0
  2  3  1  0  0  0
  3  5  1  0  0  0
  3  4  2  0  0  0
  5  7  1  0  0  0
  5  6  2  0  0  0
M  END
> <SMILES>
CCC(=O)C(=O)O

> <NAME>
2-OXOBUTANOATE

> <BioCyc_link>
http://biocyc.org/HUMAN/NEW-IMAGE?object=2-OXOBUTANOATE

> <BioCyc_name_HTML>
2-oxobutanoate

> <CAS>
600-18-0

> <KEGG_ID>
C00109

> <toxTree.tree.cramer.CramerTreeResult>


> <FORMULA>


> <toxTree.tree.cramer.CramerRules>


$$$$
CPD-239
 OpenBabel30120812303D

  4  3  0  0  0  0  0  0  0  0999 V2000
    1.0000    0.0000    0.0000 N   0  0  0  0  0
    2.5000    0.0000    0.0000 C   0  0  0  0  0
    3.0007    1.4140    0.0000 C   0  0  0  0  0
    4.5007    1.4140    0.0000 S   0  0  0  0  0
  1  2  1  0  0  0
  2  3  1  0  0  0
  3  4  1  0  0  0
M  END
> <SMILES>
NCCS

> <NAME>
CPD-239

> <BioCyc_link>
http://biocyc.org/HUMAN/NEW-IMAGE?object=CPD-239

> <BioCyc_name_HTML>
cysteamine

> <CAS>
60-23-1

> <KEGG_ID>
C01678

> <toxTree.tree.cramer.CramerTreeResult>


> <FORMULA>


> <toxTree.tree.cramer.CramerRules>


$$$$
D-LACTATE
 OpenBabel30120812303D

  7  6  0  0  0  0  0  0  0  0999 V2000
    1.0000    0.0000    0.0000 H   0  0  0  0  0
    2.5000    0.0000    0.0000 C   0  0  0  0  0
    2.9931   -0.6977    1.2329 C   0  0  0  0  0
    3.0193   -0.7348   -1.2002 O   0  0  0  0  0
    3.0007    1.4140    0.0000 C   0  0  0  0  0
    2.0265    2.5546    0.0000 O   0  0  0  0  0
    4.4756    1.6873    0.0000 O   0  0  0  0  0
  1  2  1  0  0  0
  2  5  1  0  0  0
  2  4  1  0  0  0
  2  3  1  0  0  0
  5  7  1  0  0  0
  5  6  2  0  0  0
M  END
> <SMILES>
[H]C(C)(O)C(=O)O

> <NAME>
D-LACTATE

> <BioCyc_link>
http://biocyc.org/HUMAN/NEW-IMAGE?object=D-LACTATE

> <BioCyc_name_HTML>
D-lactate

> <CAS>
10326-41-7

> <KEGG_ID>
C00256

> <toxTree.tree.cramer.CramerTreeResult>


> <FORMULA>


> <toxTree.tree.cramer.CramerRules>


$$$$
CIS-ACONITATE
 OpenBabel30120812303D

 12 11  0  0  0  0  0  0  0  0999 V2000
    1.0000    0.0000    0.0000 O   0  0  0  0  0
    2.5000    0.0000    0.0000 C   0  0  0  0  0
    3.2500   -1.2990    0.0000 O   0  0  0  0  0
    3.2500    1.2990    0.0000 C   0  0  0  0  0
    4.7500    1.2990    0.0000 C   0  0  0  0  0
    5.5000    0.0000    0.0000 C   0  0  0  0  0
    4.5258   -1.1406    0.0000 C   0  0  0  0  0
    3.0509   -0.8673    0.0000 O   0  0  0  0  0
    5.0265   -2.5546    0.0000 O   0  0  0  0  0
    5.5000    2.5981    0.0000 C   0  0  0  0  0
    4.7500    3.8971    0.0000 O   0  0  0  0  0
    7.0000    2.5981    0.0000 O   0  0  0  0  0
  1  2  2  0  0  0
  2  4  1  0  0  0
  2  3  1  0  0  0
  4  5  2  0  0  0
  5 10  1  0  0  0
  5  6  1  0  0  0
  6  7  1  0  0  0
  7  9  1  0  0  0
  7  8  2  0  0  0
 10 12  1  0  0  0
 10 11  2  0  0  0
M  END
> <SMILES>
O=C(O)C=C(CC(=O)O)C(=O)O

> <NAME>
CIS-ACONITATE

> <BioCyc_link>
http://biocyc.org/HUMAN/NEW-IMAGE?object=CIS-ACONITATE

> <BioCyc_name_HTML>
cis-aconitate

> <CAS>
585-84-2

> <KEGG_ID>
C00417

> <toxTree.tree.cramer.CramerTreeResult>


> <FORMULA>


> <toxTree.tree.cramer.CramerRules>


$$$$
DIMETHYL-GLYCINE
 OpenBabel30120812303D

  7  6  0  0  0  0  0  0  0  0999 V2000
    1.0000    0.0000    0.0000 C   0  0  0  0  0
    2.5000    0.0000    0.0000 N   0  0  0  0  0
    3.0193   -0.7348   -1.2002 C   0  0  0  0  0
    3.0007    1.4140    0.0000 C   0  0  0  0  0
    4.5007    1.4140    0.0000 C   0  0  0  0  0
    5.2507    0.1149    0.0000 O   0  0  0  0  0
    5.2507    2.7130    0.0000 O   0  0  0  0  0
  1  2  1  0  0  0
  2  4  1  0  0  0
  2  3  1  0  0  0
  4  5  1  0  0  0
  5  7  1  0  0  0
  5  6  2  0  0  0
M  END
> <SMILES>
CN(C)CC(=O)O

> <NAME>
DIMETHYL-GLYCINE

> <BioCyc_link>
http://biocyc.org/HUMAN/NEW-IMAGE?object=DIMETHYL-GLYCINE

> <BioCyc_name_HTML>
dimethylglycine

> <CAS>
1118-68-9

> <KEGG_ID>
C01026

> <toxTree.tree.cramer.CramerTreeResult>


> <FORMULA>


> <toxTree.tree.cramer.CramerRules>


$$$$
2K-4CH3-PENTANOATE
 OpenBabel30120812303D

  9  8  0  0  0  0  0  0  0  0999 V2000
    1.0000    0.0000    0.0000 C   0  0  0  0  0
    2.5000    0.0000    0.0000 C   0  0  0  0  0
    3.0193   -0.7348   -1.2002 C   0  0  0  0  0
    3.0007    1.4140    0.0000 C   0  0  0  0  0
    4.5007    1.4140    0.0000 C   0  0  0  0  0
    5.2507    0.1149    0.0000 O   0  0  0  0  0
    5.2507    2.7130    0.0000 C   0  0  0  0  0
    4.5007    4.0120    0.0000 O   0  0  0  0  0
    6.7507    2.7130    0.0000 O   0  0  0  0  0
  1  2  1  0  0  0
  2  4  1  0  0  0
  2  3  1  0  0  0
  4  5  1  0  0  0
  5  7  1  0  0  0
  5  6  2  0  0  0
  7  9  1  0  0  0
  7  8  2  0  0  0
M  END
> <SMILES>
CC(C)CC(=O)C(=O)O

> <NAME>
2K-4CH3-PENTANOATE

> <BioCyc_link>
http://biocyc.org/HUMAN/NEW-IMAGE?object=2K-4CH3-PENTANOATE

> <BioCyc_name_HTML>
2-ketoisocaproate

> <CAS>
816-66-0

> <KEGG_ID>
C00233

> <toxTree.tree.cramer.CramerTreeResult>


> <FORMULA>


> <toxTree.tree.cramer.CramerRules>


$$$$
ETHANOL-AMINE
 OpenBabel30120812303D

  4  3  0  0  0  0  0  0  0  0999 V2000
    1.0000    0.0000    0.0000 N   0  0  0  0  0
    2.5000    0.0000    0.0000 C   0  0  0  0  0
    3.0007    1.4140    0.0000 C   0  0  0  0  0
    4.5007    1.4140    0.0000 O   0  0  0  0  0
  1  2  1  0  0  0
  2  3  1  0  0  0
  3  4  1  0  0  0
M  END
> <SMILES>
NCCO

> <NAME>
ETHANOL-AMINE

> <BioCyc_link>
http://biocyc.org/HUMAN/NEW-IMAGE?object=ETHANOL-AMINE

> <BioCyc_name_HTML>
ethanolamine

> <CAS>
141-43-5

> <KEGG_ID>
C00189

> <toxTree.tree.cramer.CramerTreeResult>


> <FORMULA>


> <toxTree.tree.cramer.CramerRules>


$$$$
2K-ADIPATE
 OpenBabel30120812303D

 11 10  0  0  0  0  0  0  0  0999 V2000
    1.0000    0.0000    0.0000 O   0  0  0  0  0
    2.5000    0.0000    0.0000 C   0  0  0  0  0
    3.2500   -1.2990    0.0000 O   0  0  0  0  0
    3.2500    1.2990    0.0000 C   0  0  0  0  0
    4.7249    1.0257    0.0000 C   0  0  0  0  0
    5.4749    2.3247    0.0000 C   0  0  0  0  0
    6.9498    2.0514    0.0000 C   0  0  0  0  0
    7.4505    0.6374    0.0000 O   0  0  0  0  0
    7.9239    3.1920    0.0000 C   0  0  0  0  0
    7.4232    4.6059    0.0000 O   0  0  0  0  0
    9.3988    2.9186    0.0000 O   0  0  0  0  0
  1  2  2  0  0  0
  2  4  1  0  0  0
  2  3  1  0  0  0
  4  5  1  0  0  0
  5  6  1  0  0  0
  6  7  1  0  0  0
  7  9  1  0  0  0
  7  8  2  0  0  0
  9 11  1  0  0  0
  9 10  2  0  0  0
M  END
> <SMILES>
O=C(O)CCCC(=O)C(=O)O

> <NAME>
2K-ADIPATE

> <BioCyc_link>
http://biocyc.org/HUMAN/NEW-IMAGE?object=2K-ADIPATE

> <BioCyc_name_HTML>
&alpha;-ketoadipate

> <CAS>
3184-35-8

> <KEGG_ID>
C00322

> <toxTree.tree.cramer.CramerTreeResult>


> <FORMULA>


> <toxTree.tree.cramer.CramerRules>


$$$$
FORMALDEHYDE
 OpenBabel30120812303D

  2  1  0  0  0  0  0  0  0  0999 V2000
    1.0000    0.0000    0.0000 C   0  0  0  0  0
    2.5000    0.0000    0.0000 O   0  0  0  0  0
  1  2  2  0  0  0
M  END
> <SMILES>
C=O

> <NAME>
FORMALDEHYDE

> <BioCyc_link>
http://biocyc.org/HUMAN/NEW-IMAGE?object=FORMALDEHYDE

> <BioCyc_name_HTML>
formaldehyde

> <CAS>
50-00-0

> <KEGG_ID>
C00067

> <toxTree.tree.cramer.CramerTreeResult>


> <FORMULA>


> <toxTree.tree.cramer.CramerRules>


$$$$
GLYCOLLATE
 OpenBabel30120812303D

  5  4  0  0  0  0  0  0  0  0999 V2000
    1.0000    0.0000    0.0000 O   0  0  0  0  0
    2.5000    0.0000    0.0000 C   0  0  0  0  0
    3.0007    1.4140    0.0000 C   0  0  0  0  0
    2.0265    2.5546    0.0000 O   0  0  0  0  0
    4.4756    1.6873    0.0000 O   0  0  0  0  0
  1  2  1  0  0  0
  2  3  1  0  0  0
  3  5  1  0  0  0
  3  4  2  0  0  0
M  END
> <SMILES>
OCC(=O)O

> <NAME>
GLYCOLLATE

> <BioCyc_link>
http://biocyc.org/HUMAN/NEW-IMAGE?object=GLYCOLLATE

> <BioCyc_name_HTML>
glycolate

> <CAS>
79-14-1

> <KEGG_ID>
C00160

> <toxTree.tree.cramer.CramerTreeResult>


> <FORMULA>


> <toxTree.tree.cramer.CramerRules>


$$$$
GLYOX
 OpenBabel30120812303D

  5  4  0  0  0  0  0  0  0  0999 V2000
    1.0000    0.0000    0.0000 O   0  0  0  0  0
    2.5000    0.0000    0.0000 C   0  0  0  0  0
    3.2500    1.2990    0.0000 C   0  0  0  0  0
    2.5000    2.5981    0.0000 O   0  0  0  0  0
    4.7500    1.2990    0.0000 O   0  0  0  0  0
  1  2  2  0  0  0
  2  3  1  0  0  0
  3  5  1  0  0  0
  3  4  2  0  0  0
M  END
> <SMILES>
O=CC(=O)O

> <NAME>
GLYOX

> <BioCyc_link>
http://biocyc.org/HUMAN/NEW-IMAGE?object=GLYOX

> <BioCyc_name_HTML>
glyoxylate

> <CAS>
298-12-4

> <KEGG_ID>
C00048

> <toxTree.tree.cramer.CramerTreeResult>


> <FORMULA>


> <toxTree.tree.cramer.CramerRules>


$$$$
GLYCERALD
 OpenBabel30120812303D

  7  6  0  0  0  0  0  0  0  0999 V2000
    1.0000    0.0000    0.0000 H   0  0  0  0  0
    2.5000    0.0000    0.0000 C   0  0  0  0  0
    2.9931   -0.6977    1.2329 O   0  0  0  0  0
    3.0193   -0.7348   -1.2002 C   0  0  0  0  0
    2.6508   -2.1726   -1.4167 O   0  0  0  0  0
    3.0007    1.4140    0.0000 C   0  0  0  0  0
    4.5007    1.4140    0.0000 O   0  0  0  0  0
  1  2  1  0  0  0
  2  6  1  0  0  0
  2  4  1  0  0  0
  2  3  1  0  0  0
  4  5  2  0  0  0
  6  7  1  0  0  0
M  END
> <SMILES>
[H]C(O)(C=O)CO

> <NAME>
GLYCERALD

> <BioCyc_link>
http://biocyc.org/HUMAN/NEW-IMAGE?object=GLYCERALD

> <BioCyc_name_HTML>
glyceraldehyde

> <CAS>
367-47-5

> <KEGG_ID>
C00577

> <toxTree.tree.cramer.CramerTreeResult>


> <FORMULA>


> <toxTree.tree.cramer.CramerRules>


$$$$
ACETOL
 OpenBabel30120812303D

  5  4  0  0  0  0  0  0  0  0999 V2000
    1.0000    0.0000    0.0000 C   0  0  0  0  0
    2.5000    0.0000    0.0000 C   0  0  0  0  0
    3.2500   -1.2990    0.0000 O   0  0  0  0  0
    3.2500    1.2990    0.0000 C   0  0  0  0  0
    4.7249    1.0257    0.0000 O   0  0  0  0  0
  1  2  1  0  0  0
  2  4  1  0  0  0
  2  3  2  0  0  0
  4  5  1  0  0  0
M  END
> <SMILES>
CC(=O)CO

> <NAME>
ACETOL

> <BioCyc_link>
http://biocyc.org/HUMAN/NEW-IMAGE?object=ACETOL

> <BioCyc_name_HTML>
acetol

> <CAS>


> <KEGG_ID>
C05235

> <toxTree.tree.cramer.CramerTreeResult>


> <FORMULA>


> <toxTree.tree.cramer.CramerRules>


$$$$
MALONATE-S-ALD
 OpenBabel30120812303D

  6  5  0  0  0  0  0  0  0  0999 V2000
    1.0000    0.0000    0.0000 O   0  0  0  0  0
    2.5000    0.0000    0.0000 C   0  0  0  0  0
    3.2500    1.2990    0.0000 C   0  0  0  0  0
    4.7249    1.0257    0.0000 C   0  0  0  0  0
    5.2256   -0.3883    0.0000 O   0  0  0  0  0
    5.6991    2.1663    0.0000 O   0  0  0  0  0
  1  2  2  0  0  0
  2  3  1  0  0  0
  3  4  1  0  0  0
  4  6  1  0  0  0
  4  5  2  0  0  0
M  END
> <SMILES>
O=CCC(=O)O

> <NAME>
MALONATE-S-ALD

> <BioCyc_link>
http://biocyc.org/HUMAN/NEW-IMAGE?object=MALONATE-S-ALD

> <BioCyc_name_HTML>
malonate

> <CAS>
926-61-4

> <KEGG_ID>
C00222

> <toxTree.tree.cramer.CramerTreeResult>


> <FORMULA>


> <toxTree.tree.cramer.CramerRules>


$$$$
CPD-335
 OpenBabel30120812303D

  8  7  0  0  0  0  0  0  0  0999 V2000
    1.0000    0.0000    0.0000 H   0  0  0  0  0
    2.5000    0.0000    0.0000 C   0  0  0  0  0
    2.9931   -0.6977    1.2329 C   0  0  0  0  0
    3.0193   -0.7348   -1.2002 O   0  0  0  0  0
    3.0007    1.4140    0.0000 C   0  0  0  0  0
    4.5007    1.4140    0.0000 C   0  0  0  0  0
    5.2507    0.1149    0.0000 O   0  0  0  0  0
    5.2507    2.7130    0.0000 O   0  0  0  0  0
  1  2  1  0  0  0
  2  5  1  0  0  0
  2  4  1  0  0  0
  2  3  1  0  0  0
  5  6  1  0  0  0
  6  8  1  0  0  0
  6  7  2  0  0  0
M  END
> <SMILES>
[H]C(C)(O)CC(=O)O

> <NAME>
CPD-335

> <BioCyc_link>
http://biocyc.org/HUMAN/NEW-IMAGE?object=CPD-335

> <BioCyc_name_HTML>
(R)-3-hydroxybutanoate

> <CAS>
625-72-9

> <KEGG_ID>
C01089

> <toxTree.tree.cramer.CramerTreeResult>


> <FORMULA>


> <toxTree.tree.cramer.CramerRules>


$$$$
3-KETOBUTYRATE
 OpenBabel30120812303D

  7  6  0  0  0  0  0  0  0  0999 V2000
    1.0000    0.0000    0.0000 C   0  0  0  0  0
    2.5000    0.0000    0.0000 C   0  0  0  0  0
    3.2500   -1.2990    0.0000 O   0  0  0  0  0
    3.2500    1.2990    0.0000 C   0  0  0  0  0
    4.7249    1.0257    0.0000 C   0  0  0  0  0
    5.2256   -0.3883    0.0000 O   0  0  0  0  0
    5.6991    2.1663    0.0000 O   0  0  0  0  0
  1  2  1  0  0  0
  2  4  1  0  0  0
  2  3  2  0  0  0
  4  5  1  0  0  0
  5  7  1  0  0  0
  5  6  2  0  0  0
M  END
> <SMILES>
CC(=O)CC(=O)O

> <NAME>
3-KETOBUTYRATE

> <BioCyc_link>
http://biocyc.org/HUMAN/NEW-IMAGE?object=3-KETOBUTYRATE

> <BioCyc_name_HTML>
acetoacetate

> <CAS>
541-50-4

> <KEGG_ID>
C00164

> <toxTree.tree.cramer.CramerTreeResult>


> <FORMULA>


> <toxTree.tree.cramer.CramerRules>


$$$$
OXALACETIC_ACID
 OpenBabel30120812303D

  9  8  0  0  0  0  0  0  0  0999 V2000
    1.0000    0.0000    0.0000 O   0  0  0  0  0
    2.5000    0.0000    0.0000 C   0  0  0  0  0
    3.2500   -1.2990    0.0000 O   0  0  0  0  0
    3.2500    1.2990    0.0000 C   0  0  0  0  0
    4.7249    1.0257    0.0000 C   0  0  0  0  0
    5.2256   -0.3883    0.0000 O   0  0  0  0  0
    5.6991    2.1663    0.0000 C   0  0  0  0  0
    5.1983    3.5803    0.0000 O   0  0  0  0  0
    7.1739    1.8929    0.0000 O   0  0  0  0  0
  1  2  2  0  0  0
  2  4  1  0  0  0
  2  3  1  0  0  0
  4  5  1  0  0  0
  5  7  1  0  0  0
  5  6  2  0  0  0
  7  9  1  0  0  0
  7  8  2  0  0  0
M  END
> <SMILES>
O=C(O)CC(=O)C(=O)O

> <NAME>
OXALACETIC_ACID

> <BioCyc_link>
http://biocyc.org/HUMAN/NEW-IMAGE?object=OXALACETIC_ACID

> <BioCyc_name_HTML>
oxaloacetate

> <CAS>
328-42-7

> <KEGG_ID>
C00036

> <toxTree.tree.cramer.CramerTreeResult>


> <FORMULA>


> <toxTree.tree.cramer.CramerRules>


$$$$
PALMITATE
 OpenBabel30120812303D

 18 17  0  0  0  0  0  0  0  0999 V2000
    1.0000    0.0000    0.0000 C   0  0  0  0  0
    2.5000    0.0000    0.0000 C   0  0  0  0  0
    3.0007    1.4140    0.0000 C   0  0  0  0  0
    4.5007    1.4140    0.0000 C   0  0  0  0  0
    5.0014    2.8279    0.0000 C   0  0  0  0  0
    6.5014    2.8279    0.0000 C   0  0  0  0  0
    7.0021    4.2419    0.0000 C   0  0  0  0  0
    8.5021    4.2419    0.0000 C   0  0  0  0  0
    9.0028    5.6558    0.0000 C   0  0  0  0  0
   10.5028    5.6558    0.0000 C   0  0  0  0  0
   11.0036    7.0698    0.0000 C   0  0  0  0  0
   12.5036    7.0698    0.0000 C   0  0  0  0  0
   13.0043    8.4838    0.0000 C   0  0  0  0  0
   14.5043    8.4838    0.0000 C   0  0  0  0  0
   15.0050    9.8977    0.0000 C   0  0  0  0  0
   16.5050    9.8977    0.0000 C   0  0  0  0  0
   17.2550    8.5987    0.0000 O   0  0  0  0  0
   17.2550   11.1968    0.0000 O   0  0  0  0  0
  1  2  1  0  0  0
  2  3  1  0  0  0
  3  4  1  0  0  0
  4  5  1  0  0  0
  5  6  1  0  0  0
  6  7  1  0  0  0
  7  8  1  0  0  0
  8  9  1  0  0  0
  9 10  1  0  0  0
 10 11  1  0  0  0
 11 12  1  0  0  0
 12 13  1  0  0  0
 13 14  1  0  0  0
 14 15  1  0  0  0
 15 16  1  0  0  0
 16 18  1  0  0  0
 16 17  2  0  0  0
M  END
> <SMILES>
CCCCCCCCCCCCCCCC(=O)O

> <NAME>
PALMITATE

> <BioCyc_link>
http://biocyc.org/HUMAN/NEW-IMAGE?object=PALMITATE

> <BioCyc_name_HTML>
palmitate

> <CAS>
57-10-3

> <KEGG_ID>
C00249

> <toxTree.tree.cramer.CramerTreeResult>


> <FORMULA>


> <toxTree.tree.cramer.CramerRules>


$$$$
OBTUSIFOLIOL
 OpenBabel30120812303D

 36 39  0  0  0  0  0  0  0  0999 V2000
    1.0000    0.0000    0.0000 H   0  0  0  0  0
    2.5000    0.0000    0.0000 C   0  0  0  0  0
    2.9931   -0.6977    1.2329 C   0  0  0  0  0
    3.0193   -0.7348   -1.2002 C   0  0  0  0  0
    2.5089   -2.1452   -1.1833 C   0  0  0  0  0
    3.0282   -2.8800   -2.3834 C   0  0  0  0  0
    3.9161   -2.1770   -3.3671 C   0  0  0  0  0
    2.6597   -4.3178   -2.6000 C   0  0  0  0  0
    1.1693   -4.4649   -2.6840 C   0  0  0  0  0
    3.3025   -4.8151   -3.8607 C   0  0  0  0  0
    3.0007    1.4140    0.0000 C   0  0  0  0  0
    3.1015    0.3109   -1.0115 H   0  0  0  0  0
    2.9705    3.8367    0.4849 C   0  0  0  0  0
    3.3262    2.4639    1.0824 C   0  0  0  0  0
    3.7142    2.6209    1.4780 C   0  0  0  0  0
    4.6483    2.2620    2.5954 C   0  0  0  0  0
    3.0194    2.2284    0.3578 C   0  0  0  0  0
    2.9130    0.7531    0.0794 C   0  0  0  0  0
    1.7797    0.4706   -0.9053 C   0  0  0  0  0
    1.9543    1.3934   -2.1174 C   0  0  0  0  0
    2.4891    0.3482   -3.0509 H   0  0  0  0  0
    1.1824    3.4251   -2.0045 C   0  0  0  0  0
    1.0490    4.9038   -1.7904 H   0  0  0  0  0
    0.4556    4.6995   -2.3171 C   0  0  0  0  0
    1.9973   -0.0853   -1.6131 C   0  0  0  0  0
    2.9948   -1.1996   -1.7289 H   0  0  0  0  0
    1.8842   -1.2345   -0.6557 O   0  0  0  0  0
    1.1810    1.0307   -2.2786 C   0  0  0  0  0
    1.9341    2.2997   -2.1786 C   0  0  0  0  0
    1.6768    2.8283   -1.6705 C   0  0  0  0  0
    0.7835    4.0284   -1.5621 C   0  0  0  0  0
    2.4709    3.1617   -0.4363 C   0  0  0  0  0
    2.6354    4.5337   -0.1015 C   0  0  0  0  0
    3.3288    4.8750    1.0007 C   0  0  0  0  0
    3.8658    3.9195    1.7815 C   0  0  0  0  0
    4.4883    4.7479    2.8661 C   0  0  0  0  0
  1  2  1  0  0  0
  2 11  1  0  0  0
  2  4  1  0  0  0
  2  3  1  0  0  0
  4  5  1  0  0  0
  5  6  1  0  0  0
  6  8  1  0  0  0
  6  7  2  0  0  0
  8 10  1  0  0  0
  8  9  1  0  0  0
 11 35  1  0  0  0
 11 13  1  0  0  0
 11 12  1  0  0  0
 13 14  1  0  0  0
 14 15  1  0  0  0
 15 17  1  0  0  0
 15 35  1  0  0  0
 15 16  1  0  0  0
 17 32  2  0  0  0
 17 18  1  0  0  0
 18 19  1  0  0  0
 19 20  1  0  0  0
 20 30  1  0  0  0
 20 22  1  0  0  0
 20 21  1  0  0  0
 22 25  1  0  0  0
 22 24  1  0  0  0
 22 23  1  0  0  0
 25 28  1  0  0  0
 25 27  1  0  0  0
 25 26  1  0  0  0
 28 29  1  0  0  0
 29 30  1  0  0  0
 30 32  1  0  0  0
 30 31  1  0  0  0
 32 33  1  0  0  0
 33 34  1  0  0  0
 34 35  1  0  0  0
 35 36  1  0  0  0
M  END
> <SMILES>
[H]C(C)(CCC(=C)C(C)C)C1([H])(CCC2(C)(C=3CCC4([H])(C([H])(C)C([H])(O)CCC4(C)(C=3(CCC12(C))))))

> <NAME>
OBTUSIFOLIOL

> <BioCyc_link>
http://biocyc.org/HUMAN/NEW-IMAGE?object=OBTUSIFOLIOL

> <BioCyc_name_HTML>
obtusifoliol

> <CAS>


> <KEGG_ID>
C01943

> <toxTree.tree.cramer.CramerTreeResult>


> <FORMULA>


> <toxTree.tree.cramer.CramerRules>


$$$$
PROTON
 OpenBabel30120812303D

  1  0  0  0  0  0  0  0  0  0999 V2000
    1.0000    0.0000    0.0000 H   0  0  0  0  0
M  CHG  1   1   1
M  END
> <SMILES>
[H+]

> <NAME>
PROTON

> <BioCyc_link>
http://biocyc.org/HUMAN/NEW-IMAGE?object=PROTON

> <BioCyc_name_HTML>
H<SUP>+</SUP>

> <CAS>
12408-02-5

> <KEGG_ID>
C00080

> <toxTree.tree.cramer.CramerTreeResult>


> <FORMULA>


> <toxTree.tree.cramer.CramerRules>


$$$$
MALTOSE
 OpenBabel30120812303D

 32 33  0  0  0  0  0  0  0  0999 V2000
    1.0000    0.0000    0.0000 H   0  0  0  0  0
    2.5000    0.0000    0.0000 C   0  0  0  0  0
    2.9688    0.1628    1.4155 O   0  0  0  0  0
    3.0315   -1.3200   -0.5633 C   0  0  0  0  0
    2.5069   -2.4752    0.2370 O   0  0  0  0  0
    2.6379   -1.4463   -1.9315 O   0  0  0  0  0
    3.1450   -0.4160   -2.7815 C   0  0  0  0  0
    2.6818   -0.6625   -4.1867 H   0  0  0  0  0
    4.6449   -0.4238   -2.7694 C   0  0  0  0  0
    5.1585    0.6633   -3.6664 O   0  0  0  0  0
    2.6181    0.9406   -2.3079 C   0  0  0  0  0
    1.1216    0.9571   -2.4091 H   0  0  0  0  0
    3.1588    2.0403   -3.1730 O   0  0  0  0  0
    2.6315    3.3600   -2.6932 C   0  0  0  0  0
    3.0209    3.7130   -1.2883 H   0  0  0  0  0
    2.9584    4.7657   -3.2027 O   0  0  0  0  0
    3.0323    4.7493   -4.6299 C   0  0  0  0  0
    4.0461    3.7030   -4.9867 H   0  0  0  0  0
    3.4516    6.1022   -5.1239 C   0  0  0  0  0
    3.5296    6.0862   -6.6218 O   0  0  0  0  0
    1.8156    4.3643   -5.2723 C   0  0  0  0  0
    2.0096    4.3998   -6.7593 H   0  0  0  0  0
    0.7151    5.3191   -4.9157 O   0  0  0  0  0
    1.4425    2.9423   -4.8466 C   0  0  0  0  0
    2.5156    1.9919   -5.2884 H   0  0  0  0  0
    0.1535    2.5269   -5.4915 O   0  0  0  0  0
    1.3144    2.8920   -3.3209 C   0  0  0  0  0
    1.0269    1.4845   -2.8892 H   0  0  0  0  0
    0.1810    3.7617   -2.8638 O   0  0  0  0  0
    3.0321    1.1590   -0.8492 C   0  0  0  0  0
    2.4525    2.4503   -0.3527 H   0  0  0  0  0
    4.5256    1.2439   -0.7383 O   0  0  0  0  0
  1  2  1  0  0  0
  2 30  1  0  0  0
  2  4  1  0  0  0
  2  3  1  0  0  0
  4  6  1  0  0  0
  4  5  1  0  0  0
  6  7  1  0  0  0
  7 11  1  0  0  0
  7  9  1  0  0  0
  7  8  1  0  0  0
  9 10  1  0  0  0
 11 30  1  0  0  0
 11 13  1  0  0  0
 11 12  1  0  0  0
 13 14  1  0  0  0
 14 27  1  0  0  0
 14 16  1  0  0  0
 14 15  1  0  0  0
 16 17  1  0  0  0
 17 21  1  0  0  0
 17 19  1  0  0  0
 17 18  1  0  0  0
 19 20  1  0  0  0
 21 24  1  0  0  0
 21 23  1  0  0  0
 21 22  1  0  0  0
 24 27  1  0  0  0
 24 26  1  0  0  0
 24 25  1  0  0  0
 27 29  1  0  0  0
 27 28  1  0  0  0
 30 32  1  0  0  0
 30 31  1  0  0  0
M  END
> <SMILES>
[H]C2(O)(C(O)OC([H])(CO)C([H])(OC1([H])(OC([H])(CO)C([H])(O)C([H])(O)C1([H])(O)))C2([H])(O))

> <NAME>
MALTOSE

> <BioCyc_link>
http://biocyc.org/HUMAN/NEW-IMAGE?object=MALTOSE

> <BioCyc_name_HTML>
maltose

> <CAS>
69-79-4

> <KEGG_ID>
C00208

> <toxTree.tree.cramer.CramerTreeResult>


> <FORMULA>


> <toxTree.tree.cramer.CramerRules>


$$$$
MELIBIOSE
 OpenBabel30120812303D

 32 33  0  0  0  0  0  0  0  0999 V2000
    1.0000    0.0000    0.0000 H   0  0  0  0  0
    2.5000    0.0000    0.0000 C   0  0  0  0  0
    2.9688    0.1628    1.4155 O   0  0  0  0  0
    3.0315   -1.3200   -0.5633 C   0  0  0  0  0
    2.5069   -2.4752    0.2370 O   0  0  0  0  0
    2.6379   -1.4463   -1.9315 O   0  0  0  0  0
    3.1450   -0.4160   -2.7815 C   0  0  0  0  0
    2.6818   -0.6625   -4.1867 H   0  0  0  0  0
    4.6449   -0.4238   -2.7694 C   0  0  0  0  0
    5.1585    0.6633   -3.6664 O   0  0  0  0  0
    6.6584    0.6555   -3.6543 C   0  0  0  0  0
    7.1152    0.0703   -2.3509 H   0  0  0  0  0
    7.1940   -0.1943   -4.8090 O   0  0  0  0  0
    6.8114    0.3972   -6.0525 C   0  0  0  0  0
    5.3178    0.5298   -6.0135 H   0  0  0  0  0
    7.2484   -0.4877   -7.1821 C   0  0  0  0  0
    6.8473    0.1322   -8.4878 O   0  0  0  0  0
    7.3256    1.7149   -6.2540 C   0  0  0  0  0
    6.8737    2.2224   -7.5912 H   0  0  0  0  0
    8.8254    1.6955   -6.2374 O   0  0  0  0  0
    6.7953    2.6419   -5.1577 C   0  0  0  0  0
    5.2997    2.7144   -5.2464 H   0  0  0  0  0
    7.3433    4.0268   -5.3365 O   0  0  0  0  0
    7.1977    2.0833   -3.7892 C   0  0  0  0  0
    6.6145    2.9427   -2.7069 H   0  0  0  0  0
    8.6902    2.0931   -3.6404 O   0  0  0  0  0
    2.6181    0.9406   -2.3079 C   0  0  0  0  0
    1.1216    0.9571   -2.4091 H   0  0  0  0  0
    3.1588    2.0403   -3.1730 O   0  0  0  0  0
    3.0321    1.1590   -0.8492 C   0  0  0  0  0
    2.4525    2.4503   -0.3527 H   0  0  0  0  0
    4.5256    1.2439   -0.7383 O   0  0  0  0  0
  1  2  1  0  0  0
  2 30  1  0  0  0
  2  4  1  0  0  0
  2  3  1  0  0  0
  4  6  1  0  0  0
  4  5  1  0  0  0
  6  7  1  0  0  0
  7 27  1  0  0  0
  7  9  1  0  0  0
  7  8  1  0  0  0
  9 10  1  0  0  0
 10 11  1  0  0  0
 11 24  1  0  0  0
 11 13  1  0  0  0
 11 12  1  0  0  0
 13 14  1  0  0  0
 14 18  1  0  0  0
 14 16  1  0  0  0
 14 15  1  0  0  0
 16 17  1  0  0  0
 18 21  1  0  0  0
 18 20  1  0  0  0
 18 19  1  0  0  0
 21 24  1  0  0  0
 21 23  1  0  0  0
 21 22  1  0  0  0
 24 26  1  0  0  0
 24 25  1  0  0  0
 27 30  1  0  0  0
 27 29  1  0  0  0
 27 28  1  0  0  0
 30 32  1  0  0  0
 30 31  1  0  0  0
M  END
> <SMILES>
[H]C2(O)(C(O)OC([H])(COC1([H])(OC([H])(CO)C([H])(O)C([H])(O)C1([H])(O)))C([H])(O)C2([H])(O))

> <NAME>
MELIBIOSE

> <BioCyc_link>
http://biocyc.org/HUMAN/NEW-IMAGE?object=MELIBIOSE

> <BioCyc_name_HTML>
melibiose

> <CAS>
585-99-9

> <KEGG_ID>
C05402

> <toxTree.tree.cramer.CramerTreeResult>


> <FORMULA>


> <toxTree.tree.cramer.CramerRules>


$$$$
SORBITOL
 OpenBabel30120812303D

 12 11  0  0  0  0  0  0  0  0999 V2000
    1.0000    0.0000    0.0000 O   0  0  0  0  0
    2.5000    0.0000    0.0000 C   0  0  0  0  0
    3.0007    1.4140    0.0000 C   0  0  0  0  0
    2.4814    2.1488    1.2002 O   0  0  0  0  0
    4.5007    1.4140    0.0000 C   0  0  0  0  0
    5.0200    0.6792   -1.2002 O   0  0  0  0  0
    5.0014    2.8279    0.0000 C   0  0  0  0  0
    4.4821    3.5627    1.2002 O   0  0  0  0  0
    6.5014    2.8279    0.0000 C   0  0  0  0  0
    7.0207    2.0931   -1.2002 O   0  0  0  0  0
    7.0021    4.2419    0.0000 C   0  0  0  0  0
    8.5021    4.2419    0.0000 O   0  0  0  0  0
  1  2  1  0  0  0
  2  3  1  0  0  0
  3  5  1  0  0  0
  3  4  1  0  0  0
  5  7  1  0  0  0
  5  6  1  0  0  0
  7  9  1  0  0  0
  7  8  1  0  0  0
  9 11  1  0  0  0
  9 10  1  0  0  0
 11 12  1  0  0  0
M  END
> <SMILES>
OCC(O)C(O)C(O)C(O)CO

> <NAME>
SORBITOL

> <BioCyc_link>
http://biocyc.org/HUMAN/NEW-IMAGE?object=SORBITOL

> <BioCyc_name_HTML>
D-sorbitol

> <CAS>
50-70-4

> <KEGG_ID>
C00794

> <toxTree.tree.cramer.CramerTreeResult>


> <FORMULA>


> <toxTree.tree.cramer.CramerRules>


$$$$
TREHALOSE
 OpenBabel30120812303D

 33 34  0  0  0  0  0  0  0  0999 V2000
    1.0000    0.0000    0.0000 H   0  0  0  0  0
    2.5000    0.0000    0.0000 C   0  0  0  0  0
    2.9688    0.1628    1.4155 O   0  0  0  0  0
    3.0315   -1.3200   -0.5633 C   0  0  0  0  0
    4.5290   -1.3263   -0.4777 H   0  0  0  0  0
    2.5069   -2.4752    0.2370 O   0  0  0  0  0
    2.6379   -1.4463   -1.9315 C   0  0  0  0  0
    1.1440   -1.3129   -1.9536 H   0  0  0  0  0
    3.0711   -2.7838   -2.4545 C   0  0  0  0  0
    2.6585   -2.9175   -3.8904 O   0  0  0  0  0
    3.1450   -0.4160   -2.7815 O   0  0  0  0  0
    2.6181    0.9406   -2.3079 C   0  0  0  0  0
    1.1216    0.9571   -2.4091 H   0  0  0  0  0
    3.1588    2.0403   -3.1730 O   0  0  0  0  0
    2.6315    3.3600   -2.6932 C   0  0  0  0  0
    3.0209    3.7130   -1.2883 H   0  0  0  0  0
    2.9584    4.7657   -3.2027 O   0  0  0  0  0
    3.0323    4.7493   -4.6299 C   0  0  0  0  0
    4.0461    3.7030   -4.9867 H   0  0  0  0  0
    3.4516    6.1022   -5.1239 C   0  0  0  0  0
    3.5296    6.0862   -6.6218 O   0  0  0  0  0
    1.8156    4.3643   -5.2723 C   0  0  0  0  0
    2.0096    4.3998   -6.7593 H   0  0  0  0  0
    0.7151    5.3191   -4.9157 O   0  0  0  0  0
    1.4425    2.9423   -4.8466 C   0  0  0  0  0
    2.5156    1.9919   -5.2884 H   0  0  0  0  0
    0.1535    2.5269   -5.4915 O   0  0  0  0  0
    1.3144    2.8920   -3.3209 C   0  0  0  0  0
    1.0269    1.4845   -2.8892 H   0  0  0  0  0
    0.1810    3.7617   -2.8638 O   0  0  0  0  0
    3.0321    1.1590   -0.8492 C   0  0  0  0  0
    2.4525    2.4503   -0.3527 H   0  0  0  0  0
    4.5256    1.2439   -0.7383 O   0  0  0  0  0
  1  2  1  0  0  0
  2 31  1  0  0  0
  2  4  1  0  0  0
  2  3  1  0  0  0
  4  7  1  0  0  0
  4  6  1  0  0  0
  4  5  1  0  0  0
  7 11  1  0  0  0
  7  9  1  0  0  0
  7  8  1  0  0  0
  9 10  1  0  0  0
 11 12  1  0  0  0
 12 31  1  0  0  0
 12 14  1  0  0  0
 12 13  1  0  0  0
 14 15  1  0  0  0
 15 28  1  0  0  0
 15 17  1  0  0  0
 15 16  1  0  0  0
 17 18  1  0  0  0
 18 22  1  0  0  0
 18 20  1  0  0  0
 18 19  1  0  0  0
 20 21  1  0  0  0
 22 25  1  0  0  0
 22 24  1  0  0  0
 22 23  1  0  0  0
 25 28  1  0  0  0
 25 27  1  0  0  0
 25 26  1  0  0  0
 28 30  1  0  0  0
 28 29  1  0  0  0
 31 33  1  0  0  0
 31 32  1  0  0  0
M  END
> <SMILES>
[H]C2(O)(C([H])(O)C([H])(CO)OC([H])(OC1([H])(OC([H])(CO)C([H])(O)C([H])(O)C1([H])(O)))C2([H])(O))

> <NAME>
TREHALOSE

> <BioCyc_link>
http://biocyc.org/HUMAN/NEW-IMAGE?object=TREHALOSE

> <BioCyc_name_HTML>
trehalose

> <CAS>
99-20-7

> <KEGG_ID>
C01083

> <toxTree.tree.cramer.CramerTreeResult>


> <FORMULA>


> <toxTree.tree.cramer.CramerRules>


$$$$
GLYCEROL
 OpenBabel30120812303D

  6  5  0  0  0  0  0  0  0  0999 V2000
    1.0000    0.0000    0.0000 O   0  0  0  0  0
    2.5000    0.0000    0.0000 C   0  0  0  0  0
    3.0007    1.4140    0.0000 C   0  0  0  0  0
    2.4814    2.1488    1.2002 O   0  0  0  0  0
    4.5007    1.4140    0.0000 C   0  0  0  0  0
    5.0014    2.8279    0.0000 O   0  0  0  0  0
  1  2  1  0  0  0
  2  3  1  0  0  0
  3  5  1  0  0  0
  3  4  1  0  0  0
  5  6  1  0  0  0
M  END
> <SMILES>
OCC(O)CO

> <NAME>
GLYCEROL

> <BioCyc_link>
http://biocyc.org/HUMAN/NEW-IMAGE?object=GLYCEROL

> <BioCyc_name_HTML>
glycerol

> <CAS>
56-81-5

> <KEGG_ID>
C00116

> <toxTree.tree.cramer.CramerTreeResult>


> <FORMULA>


> <toxTree.tree.cramer.CramerRules>


$$$$
XYLITOL
 OpenBabel30120812303D

 10  9  0  0  0  0  0  0  0  0999 V2000
    1.0000    0.0000    0.0000 O   0  0  0  0  0
    2.5000    0.0000    0.0000 C   0  0  0  0  0
    3.0007    1.4140    0.0000 C   0  0  0  0  0
    2.4814    2.1488    1.2002 O   0  0  0  0  0
    4.5007    1.4140    0.0000 C   0  0  0  0  0
    5.0200    0.6792   -1.2002 O   0  0  0  0  0
    5.0014    2.8279    0.0000 C   0  0  0  0  0
    4.4821    3.5627    1.2002 O   0  0  0  0  0
    6.5014    2.8279    0.0000 C   0  0  0  0  0
    7.0021    4.2419    0.0000 O   0  0  0  0  0
  1  2  1  0  0  0
  2  3  1  0  0  0
  3  5  1  0  0  0
  3  4  1  0  0  0
  5  7  1  0  0  0
  5  6  1  0  0  0
  7  9  1  0  0  0
  7  8  1  0  0  0
  9 10  1  0  0  0
M  END
> <SMILES>
OCC(O)C(O)C(O)CO

> <NAME>
XYLITOL

> <BioCyc_link>
http://biocyc.org/HUMAN/NEW-IMAGE?object=XYLITOL

> <BioCyc_name_HTML>
xylitol

> <CAS>
87-99-0

> <KEGG_ID>
C00379

> <toxTree.tree.cramer.CramerTreeResult>


> <FORMULA>


> <toxTree.tree.cramer.CramerRules>


$$$$
LACTOSE
 OpenBabel30120812303D

 33 34  0  0  0  0  0  0  0  0999 V2000
    1.0000    0.0000    0.0000 H   0  0  0  0  0
    2.5000    0.0000    0.0000 C   0  0  0  0  0
    2.9688    0.1628    1.4155 O   0  0  0  0  0
    3.0315   -1.3200   -0.5633 O   0  0  0  0  0
    2.6379   -1.4463   -1.9315 C   0  0  0  0  0
    1.1440   -1.3129   -1.9536 H   0  0  0  0  0
    3.0711   -2.7838   -2.4545 C   0  0  0  0  0
    2.6585   -2.9175   -3.8904 O   0  0  0  0  0
    3.1450   -0.4160   -2.7815 C   0  0  0  0  0
    2.6818   -0.6625   -4.1867 H   0  0  0  0  0
    4.6449   -0.4238   -2.7694 O   0  0  0  0  0
    5.1585    0.6633   -3.6664 C   0  0  0  0  0
    5.8974   -0.0556   -4.7560 H   0  0  0  0  0
    4.1790    1.5082   -4.4843 O   0  0  0  0  0
    3.3497    2.2649   -3.5999 C   0  0  0  0  0
    2.7028    1.2737   -2.6784 H   0  0  0  0  0
    2.3238    3.0151   -4.3966 C   0  0  0  0  0
    1.4527    3.8098   -3.4693 O   0  0  0  0  0
    4.0664    3.1781   -2.7670 C   0  0  0  0  0
    3.0949    3.9222   -1.8996 H   0  0  0  0  0
    4.8097    4.1739   -3.6072 O   0  0  0  0  0
    5.0414    2.4007   -1.8796 C   0  0  0  0  0
    4.2717    1.4727   -0.9872 H   0  0  0  0  0
    5.8226    3.3438   -1.0134 O   0  0  0  0  0
    5.9876    1.5856   -2.7667 C   0  0  0  0  0
    6.8948    0.7594   -1.9038 H   0  0  0  0  0
    6.8382    2.4988   -3.5988 O   0  0  0  0  0
    2.6181    0.9406   -2.3079 C   0  0  0  0  0
    1.1216    0.9571   -2.4091 H   0  0  0  0  0
    3.1588    2.0403   -3.1730 O   0  0  0  0  0
    3.0321    1.1590   -0.8492 C   0  0  0  0  0
    2.4525    2.4503   -0.3527 H   0  0  0  0  0
    4.5256    1.2439   -0.7383 O   0  0  0  0  0
  1  2  1  0  0  0
  2 31  1  0  0  0
  2  4  1  0  0  0
  2  3  1  0  0  0
  4  5  1  0  0  0
  5  9  1  0  0  0
  5  7  1  0  0  0
  5  6  1  0  0  0
  7  8  1  0  0  0
  9 28  1  0  0  0
  9 11  1  0  0  0
  9 10  1  0  0  0
 11 12  1  0  0  0
 12 25  1  0  0  0
 12 14  1  0  0  0
 12 13  1  0  0  0
 14 15  1  0  0  0
 15 19  1  0  0  0
 15 17  1  0  0  0
 15 16  1  0  0  0
 17 18  1  0  0  0
 19 22  1  0  0  0
 19 21  1  0  0  0
 19 20  1  0  0  0
 22 25  1  0  0  0
 22 24  1  0  0  0
 22 23  1  0  0  0
 25 27  1  0  0  0
 25 26  1  0  0  0
 28 31  1  0  0  0
 28 30  1  0  0  0
 28 29  1  0  0  0
 31 33  1  0  0  0
 31 32  1  0  0  0
M  END
> <SMILES>
[H]C2(O)(OC([H])(CO)C([H])(OC1([H])(OC([H])(CO)C([H])(O)C([H])(O)C1([H])(O)))C([H])(O)C2([H])(O))

> <NAME>
LACTOSE

> <BioCyc_link>
http://biocyc.org/HUMAN/NEW-IMAGE?object=LACTOSE

> <BioCyc_name_HTML>
lactose

> <CAS>
63-42-3

> <KEGG_ID>
C00243

> <toxTree.tree.cramer.CramerTreeResult>


> <FORMULA>


> <toxTree.tree.cramer.CramerRules>


$$$$
DIHYDROLIPOAMIDE
 OpenBabel30120812303D

 12 11  0  0  0  0  0  0  0  0999 V2000
    1.0000    0.0000    0.0000 N   0  0  0  0  0
    2.5000    0.0000    0.0000 C   0  0  0  0  0
    3.2500   -1.2990    0.0000 O   0  0  0  0  0
    3.2500    1.2990    0.0000 C   0  0  0  0  0
    4.7249    1.0257    0.0000 C   0  0  0  0  0
    5.4749    2.3247    0.0000 C   0  0  0  0  0
    6.9498    2.0514    0.0000 C   0  0  0  0  0
    7.6998    3.3504    0.0000 C   0  0  0  0  0
    7.3231    4.1676    1.2002 C   0  0  0  0  0
    5.8464    4.4307    1.1833 C   0  0  0  0  0
    5.4697    5.2479    2.3834 S   0  0  0  0  0
    9.1746    3.0771    0.0000 S   0  0  0  0  0
  1  2  1  0  0  0
  2  4  1  0  0  0
  2  3  2  0  0  0
  4  5  1  0  0  0
  5  6  1  0  0  0
  6  7  1  0  0  0
  7  8  1  0  0  0
  8 12  1  0  0  0
  8  9  1  0  0  0
  9 10  1  0  0  0
 10 11  1  0  0  0
M  END
> <SMILES>
NC(=O)CCCCC(CCS)S

> <NAME>
DIHYDROLIPOAMIDE

> <BioCyc_link>
http://biocyc.org/HUMAN/NEW-IMAGE?object=DIHYDROLIPOAMIDE

> <BioCyc_name_HTML>
dihydrolipoamide

> <CAS>


> <KEGG_ID>
C00579

> <toxTree.tree.cramer.CramerTreeResult>


> <FORMULA>


> <toxTree.tree.cramer.CramerRules>


$$$$
HCO3
 OpenBabel30120812303D

  4  3  0  0  0  0  0  0  0  0999 V2000
    1.0000    0.0000    0.0000 O   0  0  0  0  0
    2.5000    0.0000    0.0000 C   0  0  0  0  0
    3.2500   -1.2990    0.0000 O   0  0  0  0  0
    3.2500    1.2990    0.0000 O   0  0  0  0  0
  1  2  2  0  0  0
  2  4  1  0  0  0
  2  3  1  0  0  0
M  CHG  1   4  -1
M  END
> <SMILES>
O=C(O)[O-]

> <NAME>
HCO3

> <BioCyc_link>
http://biocyc.org/HUMAN/NEW-IMAGE?object=HCO3

> <BioCyc_name_HTML>
bicarbonate

> <CAS>
144-55-8

> <KEGG_ID>
C00288

> <toxTree.tree.cramer.CramerTreeResult>


> <FORMULA>


> <toxTree.tree.cramer.CramerRules>


$$$$
CH33ADO
 OpenBabel30120812303D

 22 24  0  0  0  0  0  0  0  0999 V2000
    1.0000    0.0000    0.0000 H   0  0  0  0  0
    2.5000    0.0000    0.0000 C   0  0  0  0  0
    2.9034    0.1217   -1.4396 C   0  0  0  0  0
    3.0599    1.1537    0.8679 O   0  0  0  0  0
    4.4904    0.6582    1.2094 C   0  0  0  0  0
    5.0630    1.3496    2.4111 H   0  0  0  0  0
    5.4454    0.9430    0.0883 N   0  0  0  0  0
    6.1375    0.0329   -0.6155 C   0  0  0  0  0
    6.9010    0.6737   -1.5995 N   0  0  0  0  0
    6.6943    1.9723   -1.5194 C   0  0  0  0  0
    7.1824    3.1454   -2.2447 C   0  0  0  0  0
    8.1503    3.0122   -3.3829 N   0  0  0  0  0
    6.7152    4.3825   -1.8381 N   0  0  0  0  0
    5.8084    4.4812   -0.7884 C   0  0  0  0  0
    5.3597    3.4468   -0.1271 N   0  0  0  0  0
    5.7422    2.1921   -0.4204 C   0  0  0  0  0
    4.3235   -0.8601    1.4286 C   0  0  0  0  0
    4.1957   -1.1812    2.8882 H   0  0  0  0  0
    5.5233   -1.6057    0.9241 O   0  0  0  0  0
    3.0578   -1.2782    0.6595 C   0  0  0  0  0
    2.0467   -1.8906    1.5829 H   0  0  0  0  0
    3.3824   -2.3132   -0.3765 O   0  0  0  0  0
  1  2  1  0  0  0
  2 20  1  0  0  0
  2  4  1  0  0  0
  2  3  1  0  0  0
  4  5  1  0  0  0
  5 17  1  0  0  0
  5  7  1  0  0  0
  5  6  1  0  0  0
  7 16  1  0  0  0
  7  8  1  0  0  0
  8  9  2  0  0  0
  9 10  1  0  0  0
 10 16  2  0  0  0
 10 11  1  0  0  0
 11 13  2  0  0  0
 11 12  1  0  0  0
 13 14  1  0  0  0
 14 15  2  0  0  0
 15 16  1  0  0  0
 17 20  1  0  0  0
 17 19  1  0  0  0
 17 18  1  0  0  0
 20 22  1  0  0  0
 20 21  1  0  0  0
M  END
> <SMILES>
[H]C3(C)(OC([H])(N2C=NC=1C(N)=NC=NC=12)C([H])(O)C3([H])(O))

> <NAME>
CH33ADO

> <BioCyc_link>
http://biocyc.org/HUMAN/NEW-IMAGE?object=CH33ADO

> <BioCyc_name_HTML>
5'-deoxyadenosine

> <CAS>


> <KEGG_ID>
C05198

> <toxTree.tree.cramer.CramerTreeResult>


> <FORMULA>


> <toxTree.tree.cramer.CramerRules>


$$$$
LIPOAMIDE
 OpenBabel30120812303D

 12 12  0  0  0  0  0  0  0  0999 V2000
    1.0000    0.0000    0.0000 N   0  0  0  0  0
    2.5000    0.0000    0.0000 C   0  0  0  0  0
    3.2500   -1.2990    0.0000 O   0  0  0  0  0
    3.2500    1.2990    0.0000 C   0  0  0  0  0
    4.7249    1.0257    0.0000 C   0  0  0  0  0
    5.4749    2.3247    0.0000 C   0  0  0  0  0
    6.9498    2.0514    0.0000 C   0  0  0  0  0
    7.6998    3.3504    0.0000 C   0  0  0  0  0
    7.0119    4.7319   -0.1262 C   0  0  0  0  0
    8.0775    5.6965    0.4590 C   0  0  0  0  0
    8.6923    4.9124    1.6373 S   0  0  0  0  0
    8.4518    3.4207    1.3451 S   0  0  0  0  0
  1  2  1  0  0  0
  2  4  1  0  0  0
  2  3  2  0  0  0
  4  5  1  0  0  0
  5  6  1  0  0  0
  6  7  1  0  0  0
  7  8  1  0  0  0
  8 12  1  0  0  0
  8  9  1  0  0  0
  9 10  1  0  0  0
 10 11  1  0  0  0
 11 12  1  0  0  0
M  END
> <SMILES>
NC(=O)CCCCC1CCSS1

> <NAME>
LIPOAMIDE

> <BioCyc_link>
http://biocyc.org/HUMAN/NEW-IMAGE?object=LIPOAMIDE

> <BioCyc_name_HTML>
lipoamide

> <CAS>
940-69-2

> <KEGG_ID>
C00248

> <toxTree.tree.cramer.CramerTreeResult>


> <FORMULA>


> <toxTree.tree.cramer.CramerRules>


$$$$
FADH2
 OpenBabel30120812303D

 57 62  0  0  0  0  0  0  0  0999 V2000
    1.0000    0.0000    0.0000 H   0  0  0  0  0
    2.5000    0.0000    0.0000 C   0  0  0  0  0
    2.9034    0.1217   -1.4396 C   0  0  0  0  0
    4.3999    0.1302   -1.5413 O   0  0  0  0  0
    4.8033    0.2519   -2.9809 P   0  0  0  0  0
    4.2639   -0.9208   -3.7449 O   0  0  0  0  0
    4.2352    1.5066   -3.5751 O   0  0  0  0  0
    6.2998    0.2605   -3.0825 O   0  0  0  0  0
    6.7032    0.3821   -4.5222 P   0  0  0  0  0
    6.1638   -0.7906   -5.2862 O   0  0  0  0  0
    6.1351    1.6368   -5.1164 O   0  0  0  0  0
    8.1997    0.3907   -4.6238 O   0  0  0  0  0
    8.6031    0.5124   -6.0634 C   0  0  0  0  0
   10.0996    0.5210   -6.1651 C   0  0  0  0  0
   10.6677   -0.7337   -5.5708 O   0  0  0  0  0
   10.5030    0.6426   -7.6047 C   0  0  0  0  0
    9.9349    1.8973   -8.1989 O   0  0  0  0  0
   11.9995    0.6512   -7.7064 C   0  0  0  0  0
   12.5676   -0.6034   -7.1121 O   0  0  0  0  0
   12.4029    0.7729   -9.1460 C   0  0  0  0  0
   13.8994    0.7815   -9.2476 N   0  0  0  0  0
   14.5618    1.9344   -9.2934 C   0  0  0  0  0
   13.8799    3.1674   -9.2478 C   0  0  0  0  0
   14.5872    4.3265   -9.2955 C   0  0  0  0  0
   13.8521    5.6333   -9.2519 C   0  0  0  0  0
   15.9794    4.3327   -9.3840 C   0  0  0  0  0
   16.7031    5.6460   -9.4206 C   0  0  0  0  0
   16.6964    3.1808   -9.4380 C   0  0  0  0  0
   16.0265    1.9399   -9.3918 C   0  0  0  0  0
   16.6980    0.7948   -9.4366 N   0  0  0  0  0
   16.0357   -0.3561   -9.3909 C   0  0  0  0  0
   16.7166   -1.5921   -9.4364 C   0  0  0  0  0
   18.2131   -1.6136   -9.5370 O   0  0  0  0  0
   16.0283   -2.7612   -9.3900 N   0  0  0  0  0
   14.6416   -2.8103   -9.2968 C   0  0  0  0  0
   13.9545   -4.1429   -9.2515 O   0  0  0  0  0
   13.8823   -1.6526   -9.2450 N   0  0  0  0  0
   14.5720   -0.3586   -9.2926 C   0  0  0  0  0
    3.0599    1.1537    0.8679 O   0  0  0  0  0
    4.4904    0.6582    1.2094 C   0  0  0  0  0
    5.0630    1.3496    2.4111 H   0  0  0  0  0
    5.4454    0.9430    0.0883 N   0  0  0  0  0
    6.1375    0.0329   -0.6155 C   0  0  0  0  0
    6.9010    0.6737   -1.5995 N   0  0  0  0  0
    6.6943    1.9723   -1.5194 C   0  0  0  0  0
    7.1824    3.1454   -2.2447 C   0  0  0  0  0
    8.1503    3.0122   -3.3829 N   0  0  0  0  0
    6.7152    4.3825   -1.8381 N   0  0  0  0  0
    5.8084    4.4812   -0.7884 C   0  0  0  0  0
    5.3597    3.4468   -0.1271 N   0  0  0  0  0
    5.7422    2.1921   -0.4204 C   0  0  0  0  0
    4.3235   -0.8601    1.4286 C   0  0  0  0  0
    4.1957   -1.1812    2.8882 H   0  0  0  0  0
    5.5233   -1.6057    0.9241 O   0  0  0  0  0
    3.0578   -1.2782    0.6595 C   0  0  0  0  0
    2.0467   -1.8906    1.5829 H   0  0  0  0  0
    3.3824   -2.3132   -0.3765 O   0  0  0  0  0
  1  2  1  0  0  0
  2 55  1  0  0  0
  2 39  1  0  0  0
  2  3  1  0  0  0
  3  4  1  0  0  0
  4  5  1  0  0  0
  5  8  1  0  0  0
  5  7  1  0  0  0
  5  6  2  0  0  0
  8  9  1  0  0  0
  9 12  1  0  0  0
  9 11  1  0  0  0
  9 10  2  0  0  0
 12 13  1  0  0  0
 13 14  1  0  0  0
 14 16  1  0  0  0
 14 15  1  0  0  0
 16 18  1  0  0  0
 16 17  1  0  0  0
 18 20  1  0  0  0
 18 19  1  0  0  0
 20 21  1  0  0  0
 21 38  1  0  0  0
 21 22  1  0  0  0
 22 29  2  0  0  0
 22 23  1  0  0  0
 23 24  2  0  0  0
 24 26  1  0  0  0
 24 25  1  0  0  0
 26 28  2  0  0  0
 26 27  1  0  0  0
 28 29  1  0  0  0
 29 30  1  0  0  0
 30 31  1  0  0  0
 31 32  1  0  0  0
 31 38  2  0  0  0
 32 34  1  0  0  0
 32 33  2  0  0  0
 34 35  1  0  0  0
 35 37  1  0  0  0
 35 36  2  0  0  0
 37 38  1  0  0  0
 39 40  1  0  0  0
 40 52  1  0  0  0
 40 42  1  0  0  0
 40 41  1  0  0  0
 42 51  1  0  0  0
 42 43  1  0  0  0
 43 44  2  0  0  0
 44 45  1  0  0  0
 45 51  2  0  0  0
 45 46  1  0  0  0
 46 48  2  0  0  0
 46 47  1  0  0  0
 48 49  1  0  0  0
 49 50  2  0  0  0
 50 51  1  0  0  0
 52 55  1  0  0  0
 52 54  1  0  0  0
 52 53  1  0  0  0
 55 57  1  0  0  0
 55 56  1  0  0  0
M  END
> <SMILES>
[H]C6(COP(=O)(O)OP(=O)(O)OCC(O)C(O)C(O)CN2C=3C=C(C)C(C)=CC=3(NC=1C(=O)NC(=O)NC=12))(OC([H])(N5C=NC=4C(N)=NC=NC=45)C([H])(O)C6([H])(O))

> <NAME>
FADH2

> <BioCyc_link>
http://biocyc.org/HUMAN/NEW-IMAGE?object=FADH2

> <BioCyc_name_HTML>
FADH<SUB>2</SUB>

> <CAS>
1910-41-4

> <KEGG_ID>
C01352

> <toxTree.tree.cramer.CramerTreeResult>


> <FORMULA>


> <toxTree.tree.cramer.CramerRules>


$$$$
D-SEDOHEPTULOSE-7-P
 OpenBabel30120812303D

 18 17  0  0  0  0  0  0  0  0999 V2000
    1.0000    0.0000    0.0000 O   0  0  0  0  0
    2.5000    0.0000    0.0000 C   0  0  0  0  0
    3.0007    1.4140    0.0000 C   0  0  0  0  0
    2.0265    2.5546    0.0000 O   0  0  0  0  0
    4.4756    1.6873    0.0000 C   0  0  0  0  0
    5.1201    1.0594   -1.2002 O   0  0  0  0  0
    4.7102    3.1688    0.0000 C   0  0  0  0  0
    4.0657    3.7967    1.2002 O   0  0  0  0  0
    6.1851    3.4422    0.0000 C   0  0  0  0  0
    6.8297    2.8143   -1.2002 O   0  0  0  0  0
    6.4198    4.9237    0.0000 C   0  0  0  0  0
    5.7753    5.5516    1.2002 O   0  0  0  0  0
    7.8947    5.1971    0.0000 C   0  0  0  0  0
    8.1293    6.6786    0.0000 O   0  0  0  0  0
    9.6042    6.9520    0.0000 P   0  0  0  0  0
   10.2162    6.3558    1.2329 O   0  0  0  0  0
   10.2487    6.3241   -1.2002 O   0  0  0  0  0
    9.8388    8.4335    0.0000 O   0  0  0  0  0
  1  2  1  0  0  0
  2  3  1  0  0  0
  3  5  1  0  0  0
  3  4  2  0  0  0
  5  7  1  0  0  0
  5  6  1  0  0  0
  7  9  1  0  0  0
  7  8  1  0  0  0
  9 11  1  0  0  0
  9 10  1  0  0  0
 11 13  1  0  0  0
 11 12  1  0  0  0
 13 14  1  0  0  0
 14 15  1  0  0  0
 15 18  1  0  0  0
 15 17  1  0  0  0
 15 16  2  0  0  0
M  END
> <SMILES>
OCC(=O)C(O)C(O)C(O)C(O)COP(=O)(O)O

> <NAME>
D-SEDOHEPTULOSE-7-P

> <BioCyc_link>
http://biocyc.org/HUMAN/NEW-IMAGE?object=D-SEDOHEPTULOSE-7-P

> <BioCyc_name_HTML>
D-sedoheptulose-7-phosphate

> <CAS>
2646-35-7

> <KEGG_ID>
C00281

> <toxTree.tree.cramer.CramerTreeResult>


> <FORMULA>


> <toxTree.tree.cramer.CramerRules>


$$$$
CARNITINE
 OpenBabel30120812303D

 12 11  0  0  0  0  0  0  0  0999 V2000
    1.0000    0.0000    0.0000 H   0  0  0  0  0
    2.5000    0.0000    0.0000 C   0  0  0  0  0
    2.9931   -0.6977    1.2329 O   0  0  0  0  0
    3.0193   -0.7348   -1.2002 C   0  0  0  0  0
    2.5089   -2.1452   -1.1833 C   0  0  0  0  0
    1.6201   -2.6078   -0.0671 O   0  0  0  0  0
    2.8873   -3.0930   -2.2826 O   0  0  0  0  0
    3.0007    1.4140    0.0000 C   0  0  0  0  0
    4.5007    1.4140    0.0000 N   0  0  0  0  0
    4.9938    0.7163    1.2329 C   0  0  0  0  0
    5.0200    0.6792   -1.2002 C   0  0  0  0  0
    5.0014    2.8279    0.0000 C   0  0  0  0  0
  1  2  1  0  0  0
  2  8  1  0  0  0
  2  4  1  0  0  0
  2  3  1  0  0  0
  4  5  1  0  0  0
  5  7  1  0  0  0
  5  6  2  0  0  0
  8  9  1  0  0  0
  9 12  1  0  0  0
  9 11  1  0  0  0
  9 10  1  0  0  0
M  CHG  2   7  -1   9   1
M  END
> <SMILES>
[H]C(O)(CC(=O)[O-])C[N+](C)(C)C

> <NAME>
CARNITINE

> <BioCyc_link>
http://biocyc.org/HUMAN/NEW-IMAGE?object=CARNITINE

> <BioCyc_name_HTML>
L-carnitine

> <CAS>
541-15-1

> <KEGG_ID>
C00318

> <toxTree.tree.cramer.CramerTreeResult>


> <FORMULA>


> <toxTree.tree.cramer.CramerRules>


$$$$
S-ADENOSYLMETHIONINE
 OpenBabel30120812303D

 32 34  0  0  0  0  0  0  0  0999 V2000
    1.0000    0.0000    0.0000 H   0  0  0  0  0
    2.5000    0.0000    0.0000 C   0  0  0  0  0
    2.9931   -0.6977    1.2329 N   0  0  0  0  0
    3.0193   -0.7348   -1.2002 C   0  0  0  0  0
    2.5089   -2.1452   -1.1833 C   0  0  0  0  0
    3.0282   -2.8800   -2.3834 S   0  0  0  0  0
    4.5282   -2.8706   -2.3892 C   0  0  0  0  0
    2.5178   -4.2904   -2.3666 C   0  0  0  0  0
    3.0371   -5.0252   -3.5667 C   0  0  0  0  0
    2.4895   -4.2571   -4.7329 H   0  0  0  0  0
    4.5804   -5.0925   -3.6735 O   0  0  0  0  0
    4.8039   -6.3236   -4.5916 C   0  0  0  0  0
    6.1885   -6.8867   -4.4655 H   0  0  0  0  0
    4.6487   -5.9573   -6.0379 N   0  0  0  0  0
    4.7236   -4.7148   -6.5410 C   0  0  0  0  0
    4.6289   -4.7614   -7.9377 N   0  0  0  0  0
    4.4961   -6.0171   -8.3132 C   0  0  0  0  0
    4.3530   -6.7048   -9.5966 C   0  0  0  0  0
    4.3412   -5.9469  -10.8910 N   0  0  0  0  0
    4.2291   -8.0824   -9.5679 N   0  0  0  0  0
    4.2553   -8.7656   -8.3569 C   0  0  0  0  0
    4.3819   -8.1713   -7.1995 N   0  0  0  0  0
    4.5039   -6.8372   -7.0924 C   0  0  0  0  0
    3.7184   -7.3276   -4.1503 C   0  0  0  0  0
    4.2758   -8.3316   -3.1854 H   0  0  0  0  0
    3.1976   -8.0994   -5.3264 O   0  0  0  0  0
    2.5953   -6.5017   -3.4986 C   0  0  0  0  0
    2.3695   -6.9293   -2.0787 H   0  0  0  0  0
    1.2977   -6.7027   -4.2239 O   0  0  0  0  0
    3.0007    1.4140    0.0000 C   0  0  0  0  0
    2.0265    2.5546    0.0000 O   0  0  0  0  0
    4.4756    1.6873    0.0000 O   0  0  0  0  0
  1  2  1  0  0  0
  2 30  1  0  0  0
  2  4  1  0  0  0
  2  3  1  0  0  0
  4  5  1  0  0  0
  5  6  1  0  0  0
  6  8  1  0  0  0
  6  7  1  0  0  0
  8  9  1  0  0  0
  9 27  1  0  0  0
  9 11  1  0  0  0
  9 10  1  0  0  0
 11 12  1  0  0  0
 12 24  1  0  0  0
 12 14  1  0  0  0
 12 13  1  0  0  0
 14 23  1  0  0  0
 14 15  1  0  0  0
 15 16  2  0  0  0
 16 17  1  0  0  0
 17 23  2  0  0  0
 17 18  1  0  0  0
 18 20  2  0  0  0
 18 19  1  0  0  0
 20 21  1  0  0  0
 21 22  2  0  0  0
 22 23  1  0  0  0
 24 27  1  0  0  0
 24 26  1  0  0  0
 24 25  1  0  0  0
 27 29  1  0  0  0
 27 28  1  0  0  0
 30 32  1  0  0  0
 30 31  2  0  0  0
M  CHG  2   6   1  32  -1
M  END
> <SMILES>
[H]C(N)(CC[S+](C)CC3([H])(OC([H])(N2C=NC=1C(N)=NC=NC=12)C([H])(O)C3([H])(O)))C(=O)[O-]

> <NAME>
S-ADENOSYLMETHIONINE

> <BioCyc_link>
http://biocyc.org/HUMAN/NEW-IMAGE?object=S-ADENOSYLMETHIONINE

> <BioCyc_name_HTML>
<i>S</i>-adenosyl-L-methionine

> <CAS>
29908-03-0

> <KEGG_ID>
C00019

> <toxTree.tree.cramer.CramerTreeResult>


> <FORMULA>


> <toxTree.tree.cramer.CramerRules>


$$$$
S-ADENOSYLMETHIONINAMINE
 OpenBabel30120812303D

 28 30  0  0  0  0  0  0  0  0999 V2000
    1.0000    0.0000    0.0000 H   0  0  0  0  0
    2.5000    0.0000    0.0000 C   0  0  0  0  0
    2.9034    0.1217   -1.4396 C   0  0  0  0  0
    4.3999    0.1302   -1.5413 S   0  0  0  0  0
    4.9680   -1.1244   -0.9470 C   0  0  0  0  0
    4.8033    0.2519   -2.9809 C   0  0  0  0  0
    6.2998    0.2605   -3.0825 C   0  0  0  0  0
    6.7032    0.3821   -4.5222 C   0  0  0  0  0
    8.1997    0.3907   -4.6238 N   0  0  0  0  0
    3.0599    1.1537    0.8679 O   0  0  0  0  0
    4.4904    0.6582    1.2094 C   0  0  0  0  0
    5.0630    1.3496    2.4111 H   0  0  0  0  0
    5.4454    0.9430    0.0883 N   0  0  0  0  0
    6.1375    0.0329   -0.6155 C   0  0  0  0  0
    6.9010    0.6737   -1.5995 N   0  0  0  0  0
    6.6943    1.9723   -1.5194 C   0  0  0  0  0
    7.1824    3.1454   -2.2447 C   0  0  0  0  0
    8.1503    3.0122   -3.3829 N   0  0  0  0  0
    6.7152    4.3825   -1.8381 N   0  0  0  0  0
    5.8084    4.4812   -0.7884 C   0  0  0  0  0
    5.3597    3.4468   -0.1271 N   0  0  0  0  0
    5.7422    2.1921   -0.4204 C   0  0  0  0  0
    4.3235   -0.8601    1.4286 C   0  0  0  0  0
    4.1957   -1.1812    2.8882 H   0  0  0  0  0
    5.5233   -1.6057    0.9241 O   0  0  0  0  0
    3.0578   -1.2782    0.6595 C   0  0  0  0  0
    2.0467   -1.8906    1.5829 H   0  0  0  0  0
    3.3824   -2.3132   -0.3765 O   0  0  0  0  0
  1  2  1  0  0  0
  2 26  1  0  0  0
  2 10  1  0  0  0
  2  3  1  0  0  0
  3  4  1  0  0  0
  4  6  1  0  0  0
  4  5  1  0  0  0
  6  7  1  0  0  0
  7  8  1  0  0  0
  8  9  1  0  0  0
 10 11  1  0  0  0
 11 23  1  0  0  0
 11 13  1  0  0  0
 11 12  1  0  0  0
 13 22  1  0  0  0
 13 14  1  0  0  0
 14 15  2  0  0  0
 15 16  1  0  0  0
 16 22  2  0  0  0
 16 17  1  0  0  0
 17 19  2  0  0  0
 17 18  1  0  0  0
 19 20  1  0  0  0
 20 21  2  0  0  0
 21 22  1  0  0  0
 23 26  1  0  0  0
 23 25  1  0  0  0
 23 24  1  0  0  0
 26 28  1  0  0  0
 26 27  1  0  0  0
M  CHG  1   4   1
M  END
> <SMILES>
[H]C3(C[S+](C)CCCN)(OC([H])(N2C=NC=1C(N)=NC=NC=12)C([H])(O)C3([H])(O))

> <NAME>
S-ADENOSYLMETHIONINAMINE

> <BioCyc_link>
http://biocyc.org/HUMAN/NEW-IMAGE?object=S-ADENOSYLMETHIONINAMINE

> <BioCyc_name_HTML>
<i>S</i>-adenosyl-L-methioninamine

> <CAS>


> <KEGG_ID>
C01137

> <toxTree.tree.cramer.CramerTreeResult>


> <FORMULA>


> <toxTree.tree.cramer.CramerRules>


$$$$
ADENINE_2
 OpenBabel30120812303D

 10 11  0  0  0  0  0  0  0  0999 V2000
    1.0000    0.0000    0.0000 N   0  0  0  0  0
    2.5000    0.0000    0.0000 C   0  0  0  0  0
    3.1511   -1.1758    0.0010 C   0  0  0  0  0
    2.7618   -2.5008    0.0020 N   0  0  0  0  0
    3.8698   -3.2591    0.0020 C   0  0  0  0  0
    5.0060   -2.4400    0.0011 N   0  0  0  0  0
    4.6217   -1.1800    0.0000 C   0  0  0  0  0
    5.3080    0.1121   -0.0009 N   0  0  0  0  0
    4.5199    1.2492    0.0050 C   0  0  0  0  0
    3.1333    1.1436   -0.0010 N   0  0  0  0  0
  1  2  1  0  0  0
  2 10  1  0  0  0
  2  3  2  0  0  0
  3  4  1  0  0  0
  3  7  1  0  0  0
  4  5  2  0  0  0
  5  6  1  0  0  0
  6  7  2  0  0  0
  7  8  1  0  0  0
  8  9  2  0  0  0
  9 10  1  0  0  0
M  END
> <SMILES>
NC1=C2N=CN=C2N=CN1

> <NAME>
ADENINE_2

> <BioCyc_link>
http://biocyc.org/HUMAN/NEW-IMAGE?object=ADENINE

> <BioCyc_name_HTML>


> <CAS>
73-24-5

> <KEGG_ID>


> <toxTree.tree.cramer.CramerTreeResult>
1Y

> <FORMULA>
C5H5N5

> <toxTree.tree.cramer.CramerRules>
Low (Class I)

$$$$
CYTIDINE_2
 OpenBabel30120812303D

 21 22  0  0  0  0  0  0  0  0999 V2000
    8.3913    0.0511   -5.5123 N   0  0  0  0  0
    7.9634    0.0534   -4.0746 C   0  0  0  0  0
    7.7625    1.2497   -3.4186 N   0  0  0  0  0
    7.3759    1.2511   -2.0768 C   0  0  0  0  0
    7.1618    2.5487   -1.3555 O   0  0  0  0  0
    7.1896    0.0390   -1.4102 N   0  0  0  0  0
    7.3882   -1.1502   -2.0795 C   0  0  0  0  0
    7.7714   -1.1448   -3.4096 C   0  0  0  0  0
    6.7743    0.0301    0.0312 C   0  0  0  0  0
    5.2744    0.0187    0.0181 H   0  0  0  0  0
    7.3192    1.2538    0.8079 O   0  0  0  0  0
    8.7498    0.7976    1.1999 C   0  0  0  0  0
    9.3075    1.5875    2.3467 H   0  0  0  0  0
    9.7127    0.9980    0.0673 C   0  0  0  0  0
   11.0801    0.5457    0.4866 O   0  0  0  0  0
    8.5907   -0.6993    1.5392 C   0  0  0  0  0
    8.4523   -0.9028    3.0189 H   0  0  0  0  0
    9.7997   -1.4745    1.1062 O   0  0  0  0  0
    7.3345   -1.1869    0.7960 C   0  0  0  0  0
    6.3194   -1.7302    1.7574 H   0  0  0  0  0
    7.6748   -2.2996   -0.1506 O   0  0  0  0  0
  1  2  1  0  0  0
  2  8  2  0  0  0
  2  3  1  0  0  0
  3  4  1  0  0  0
  4  6  1  0  0  0
  4  5  2  0  0  0
  6  7  2  0  0  0
  9  6  1  0  0  0
  7  8  1  0  0  0
  9 19  1  0  0  0
  9 11  1  0  0  0
  9 10  1  0  0  0
 11 12  1  0  0  0
 12 16  1  0  0  0
 12 14  1  0  0  0
 12 13  1  0  0  0
 14 15  1  0  0  0
 16 19  1  0  0  0
 16 18  1  0  0  0
 16 17  1  0  0  0
 19 21  1  0  0  0
 19 20  1  0  0  0
M  END
> <SMILES>
NC1NC(=O)N=(CC=1)[C@@H]2O[C@H](CO)[C@@H](O)[C@H]2O

> <NAME>
CYTIDINE_2

> <BioCyc_link>
http://biocyc.org/HUMAN/NEW-IMAGE?object=CYTIDINE

> <BioCyc_name_HTML>


> <CAS>
65-46-3

> <KEGG_ID>


> <toxTree.tree.cramer.CramerTreeResult>
1Y

> <FORMULA>
C9H13N3O5

> <toxTree.tree.cramer.CramerRules>
Low (Class I)

$$$$
CYTOSINE_2
 OpenBabel30120812303D

  8  8  0  0  0  0  0  0  0  0999 V2000
    1.0000    0.0000    0.0000 N   0  0  0  0  0
    2.5000    0.0000    0.0000 C   0  0  0  0  0
    3.1879   -1.1952   -0.0000 N   0  0  0  0  0
    4.5842   -1.1944    0.0121 C   0  0  0  0  0
    5.3386   -2.4909    0.0187 O   0  0  0  0  0
    5.2744    0.0187    0.0181 N   0  0  0  0  0
    4.5744    1.2069    0.0121 C   0  0  0  0  0
    3.1903    1.1993    0.0000 C   0  0  0  0  0
  1  2  1  0  0  0
  2  8  2  0  0  0
  2  3  1  0  0  0
  3  4  1  0  0  0
  4  6  1  0  0  0
  4  5  2  0  0  0
  6  7  2  0  0  0
  7  8  1  0  0  0
M  END
> <SMILES>
NC1NC(=O)N=CC=1

> <NAME>
CYTOSINE_2

> <BioCyc_link>
http://biocyc.org/HUMAN/NEW-IMAGE?object=CYTOSINE

> <BioCyc_name_HTML>


> <CAS>
71-30-7

> <KEGG_ID>


> <toxTree.tree.cramer.CramerTreeResult>
1Y

> <FORMULA>
C4H5N3O

> <toxTree.tree.cramer.CramerRules>
Low (Class I)

$$$$
GUANINE_2
 OpenBabel30120812303D

 11 12  0  0  0  0  0  0  0  0999 V2000
    1.0000    0.0000    0.0000 N   0  0  0  0  0
    2.5000    0.0000    0.0000 C   0  0  0  0  0
    3.1879    1.2004   -0.0000 N   0  0  0  0  0
    4.6494    1.1362    0.0137 C   0  0  0  0  0
    5.2778   -0.1934    0.0202 C   0  0  0  0  0
    6.6414    0.0247    0.0330 N   0  0  0  0  0
    6.8498    1.3510    0.0348 C   0  0  0  0  0
    5.6219    2.0248    0.0232 N   0  0  0  0  0
    4.4961   -1.2868    0.0124 C   0  0  0  0  0
    5.1409   -2.6411    0.0180 O   0  0  0  0  0
    3.1915   -1.2066    0.0000 N   0  0  0  0  0
  1  2  1  0  0  0
  2 11  2  0  0  0
  2  3  1  0  0  0
  3  4  1  0  0  0
  4  5  2  0  0  0
  4  8  1  0  0  0
  5  9  1  0  0  0
  5  6  1  0  0  0
  6  7  1  0  0  0
  7  8  2  0  0  0
  9 11  1  0  0  0
  9 10  2  0  0  0
M  END
> <SMILES>
NC1NC2=C(NC=N2)C(=O)N=1

> <NAME>
GUANINE_2

> <BioCyc_link>
http://biocyc.org/HUMAN/NEW-IMAGE?object=GUANINE

> <BioCyc_name_HTML>


> <CAS>
73-40-5

> <KEGG_ID>


> <toxTree.tree.cramer.CramerTreeResult>
1Y

> <FORMULA>
C5H5N5O

> <toxTree.tree.cramer.CramerRules>
Low (Class I)

$$$$
GUANOSINE_2
 OpenBabel30120812303D

 24 26  0  0  0  0  0  0  0  0999 V2000
    1.5547    7.5211   -0.9609 N   0  0  0  0  0
    1.7304    6.0316   -0.9393 C   0  0  0  0  0
    2.9625    5.4888   -0.6210 N   0  0  0  0  0
    3.0686    4.0297   -0.6033 C   0  0  0  0  0
    1.8650    3.2502   -0.9297 C   0  0  0  0  0
    2.2307    1.9214   -0.8416 N   0  0  0  0  0
    3.5270    1.8695   -0.4960 C   0  0  0  0  0
    4.0325    3.1678   -0.3518 N   0  0  0  0  0
    5.4434    3.5141    0.0217 C   0  0  0  0  0
    5.6219    2.0248    0.0232 H   0  0  0  0  0
    5.6336    4.2939    1.3459 O   0  0  0  0  0
    5.2569    5.7445    0.9429 C   0  0  0  0  0
    5.8077    6.7637    1.8957 H   0  0  0  0  0
    3.7702    5.9428    0.9566 C   0  0  0  0  0
    3.4497    7.3542    0.5623 O   0  0  0  0  0
    5.8281    5.9024   -0.4819 C   0  0  0  0  0
    7.1637    6.5847   -0.4525 H   0  0  0  0  0
    4.9255    6.7527   -1.3258 O   0  0  0  0  0
    5.9466    4.4842   -1.0672 C   0  0  0  0  0
    7.3651    4.1767   -1.4458 H   0  0  0  0  0
    5.1262    4.3538   -2.3162 O   0  0  0  0  0
    0.7266    3.8988   -1.2294 C   0  0  0  0  0
   -0.4986    3.1001   -1.5628 O   0  0  0  0  0
    0.6539    5.2039   -1.2395 N   0  0  0  0  0
  1  2  1  0  0  0
  2 24  2  0  0  0
  2  3  1  0  0  0
  3  4  1  0  0  0
  4  5  2  0  0  0
  4  8  1  0  0  0
  5 22  1  0  0  0
  5  6  1  0  0  0
  6  7  2  0  0  0
  7  8  1  0  0  0
  9  8  1  0  0  0
  9 19  1  0  0  0
  9 11  1  0  0  0
  9 10  1  0  0  0
 11 12  1  0  0  0
 12 16  1  0  0  0
 12 14  1  0  0  0
 12 13  1  0  0  0
 14 15  1  0  0  0
 16 19  1  0  0  0
 16 18  1  0  0  0
 16 17  1  0  0  0
 19 21  1  0  0  0
 19 20  1  0  0  0
 22 24  1  0  0  0
 22 23  2  0  0  0
M  END
> <SMILES>
NC1NC2=C(N=CN2[C@@H]3O[C@H](CO)[C@@H](O)[C@H]3O)C(=O)N=1

> <NAME>
GUANOSINE_2

> <BioCyc_link>
http://biocyc.org/HUMAN/NEW-IMAGE?object=GUANOSINE

> <BioCyc_name_HTML>


> <CAS>
118-00-3

> <KEGG_ID>


> <toxTree.tree.cramer.CramerTreeResult>
1Y

> <FORMULA>
C10H13N5O5

> <toxTree.tree.cramer.CramerRules>
Low (Class I)

$$$$
Guanosine monophosphate_2
 OpenBabel30120812303D

 24 26  0  0  0  0  0  0  0  0999 V2000
    1.0000    0.0000    0.0000 N   0  0  0  0  0
    2.5000    0.0000    0.0000 C   0  0  0  0  0
    3.1915   -1.2066    0.0000 N   0  0  0  0  0
    4.4961   -1.2868    0.0124 C   0  0  0  0  0
    5.1409   -2.6411    0.0180 O   0  0  0  0  0
    5.2778   -0.1934    0.0202 C   0  0  0  0  0
    6.6414    0.0247    0.0330 N   0  0  0  0  0
    6.8498    1.3510    0.0348 C   0  0  0  0  0
    5.6219    2.0248    0.0232 N   0  0  0  0  0
    4.6494    1.1362    0.0137 C   0  0  0  0  0
    3.1879    1.2004   -0.0000 N   0  0  0  0  0
    5.4434    3.5141    0.0217 C   0  0  0  0  0
    5.6336    4.2939    1.3459 O   0  0  0  0  0
    5.2569    5.7445    0.9429 C   0  0  0  0  0
    3.7702    5.9428    0.9566 C   0  0  0  0  0
    3.4497    7.3542    0.5623 O   0  0  0  0  0
    1.9629    7.5526    0.5760 P   0  0  0  0  0
    1.3307    6.6107   -0.4054 O   0  0  0  0  0
    1.4121    7.2565    1.9394 O   0  0  0  0  0
    1.6424    8.9639    0.1817 O   0  0  0  0  0
    5.8281    5.9024   -0.4819 C   0  0  0  0  0
    4.9255    6.7527   -1.3258 O   0  0  0  0  0
    5.9466    4.4842   -1.0672 C   0  0  0  0  0
    5.1262    4.3538   -2.3162 O   0  0  0  0  0
  1  2  1  0  0  0
  2  3  2  0  0  0
  2 11  1  0  0  0
  3  4  1  0  0  0
  4  6  1  0  0  0
  4  5  2  0  0  0
  6  7  1  0  0  0
  6 10  2  0  0  0
  7  8  2  0  0  0
  8  9  1  0  0  0
  9 10  1  0  0  0
  9 12  1  0  0  0
 10 11  1  0  0  0
 12 23  1  0  0  0
 12 13  1  0  0  0
 13 14  1  0  0  0
 14 21  1  0  0  0
 14 15  1  0  0  0
 15 16  1  0  0  0
 16 17  1  0  0  0
 17 20  2  0  0  0
 17 19  1  0  0  0
 17 18  1  0  0  0
 21 23  1  0  0  0
 21 22  1  0  0  0
 23 24  1  0  0  0
M  END
> <SMILES>
NC1=NC(=O)C=2N=CN(C=2(N1))C3OC(COP(O)(O)=O)C(O)C3(O)

> <NAME>
Guanosine monophosphate_2

> <BioCyc_link>
http://biocyc.org/HUMAN/NEW-IMAGE?object=Guanosine monophosphate

> <BioCyc_name_HTML>


> <CAS>


> <KEGG_ID>


> <toxTree.tree.cramer.CramerTreeResult>


> <FORMULA>


> <toxTree.tree.cramer.CramerRules>


$$$$
Guanosine diphosphate_2
 OpenBabel30120812303D

 28 30  0  0  0  0  0  0  0  0999 V2000
    1.0000    0.0000    0.0000 N   0  0  0  0  0
    2.5000    0.0000    0.0000 C   0  0  0  0  0
    3.1915   -1.2066    0.0000 N   0  0  0  0  0
    4.4961   -1.2868    0.0124 C   0  0  0  0  0
    5.1409   -2.6411    0.0180 O   0  0  0  0  0
    5.2778   -0.1934    0.0202 C   0  0  0  0  0
    6.6414    0.0247    0.0330 N   0  0  0  0  0
    6.8498    1.3510    0.0348 C   0  0  0  0  0
    5.6219    2.0248    0.0232 N   0  0  0  0  0
    4.6494    1.1362    0.0137 C   0  0  0  0  0
    3.1879    1.2004   -0.0000 N   0  0  0  0  0
    5.4434    3.5141    0.0217 C   0  0  0  0  0
    5.6336    4.2939    1.3459 O   0  0  0  0  0
    5.2569    5.7445    0.9429 C   0  0  0  0  0
    3.7702    5.9428    0.9566 C   0  0  0  0  0
    3.4497    7.3542    0.5623 O   0  0  0  0  0
    1.9629    7.5526    0.5760 P   0  0  0  0  0
    1.3307    6.6107   -0.4054 O   0  0  0  0  0
    1.4121    7.2565    1.9394 O   0  0  0  0  0
    1.6424    8.9639    0.1817 O   0  0  0  0  0
    0.1557    9.1623    0.1954 P   0  0  0  0  0
   -0.4765    8.2204   -0.7860 O   0  0  0  0  0
   -0.3952    8.8662    1.5589 O   0  0  0  0  0
   -0.1648   10.5736   -0.1989 O   0  0  0  0  0
    5.8281    5.9024   -0.4819 C   0  0  0  0  0
    4.9255    6.7527   -1.3258 O   0  0  0  0  0
    5.9466    4.4842   -1.0672 C   0  0  0  0  0
    5.1262    4.3538   -2.3162 O   0  0  0  0  0
  1  2  1  0  0  0
  2  3  2  0  0  0
  2 11  1  0  0  0
  3  4  1  0  0  0
  4  6  1  0  0  0
  4  5  2  0  0  0
  6  7  1  0  0  0
  6 10  2  0  0  0
  7  8  2  0  0  0
  8  9  1  0  0  0
  9 10  1  0  0  0
  9 12  1  0  0  0
 10 11  1  0  0  0
 12 27  1  0  0  0
 12 13  1  0  0  0
 13 14  1  0  0  0
 14 25  1  0  0  0
 14 15  1  0  0  0
 15 16  1  0  0  0
 16 17  1  0  0  0
 17 20  1  0  0  0
 17 19  2  0  0  0
 17 18  1  0  0  0
 20 21  1  0  0  0
 21 24  2  0  0  0
 21 23  1  0  0  0
 21 22  1  0  0  0
 25 27  1  0  0  0
 25 26  1  0  0  0
 27 28  1  0  0  0
M  END
> <SMILES>
NC1=NC(=O)C=2N=CN(C=2(N1))C3OC(COP(O)(=O)OP(O)(O)=O)C(O)C3(O)

> <NAME>
Guanosine diphosphate_2

> <BioCyc_link>
http://biocyc.org/HUMAN/NEW-IMAGE?object=Guanosine diphosphate

> <BioCyc_name_HTML>


> <CAS>


> <KEGG_ID>


> <toxTree.tree.cramer.CramerTreeResult>


> <FORMULA>


> <toxTree.tree.cramer.CramerRules>


$$$$
Guanosine triphosphate_2
 OpenBabel30120812303D

 32 34  0  0  0  0  0  0  0  0999 V2000
    1.0000    0.0000    0.0000 N   0  0  0  0  0
    2.5000    0.0000    0.0000 C   0  0  0  0  0
    3.1915   -1.2066    0.0000 N   0  0  0  0  0
    4.4961   -1.2868    0.0124 C   0  0  0  0  0
    5.1409   -2.6411    0.0180 O   0  0  0  0  0
    5.2778   -0.1934    0.0202 C   0  0  0  0  0
    6.6414    0.0247    0.0330 N   0  0  0  0  0
    6.8498    1.3510    0.0348 C   0  0  0  0  0
    5.6219    2.0248    0.0232 N   0  0  0  0  0
    4.6494    1.1362    0.0137 C   0  0  0  0  0
    3.1879    1.2004   -0.0000 N   0  0  0  0  0
    5.4434    3.5141    0.0217 C   0  0  0  0  0
    5.6336    4.2939    1.3459 O   0  0  0  0  0
    5.2569    5.7445    0.9429 C   0  0  0  0  0
    3.7702    5.9428    0.9566 C   0  0  0  0  0
    3.4497    7.3542    0.5623 O   0  0  0  0  0
    1.9629    7.5526    0.5760 P   0  0  0  0  0
    1.3307    6.6107   -0.4054 O   0  0  0  0  0
    1.4121    7.2565    1.9394 O   0  0  0  0  0
    1.6424    8.9639    0.1817 O   0  0  0  0  0
    0.1557    9.1623    0.1954 P   0  0  0  0  0
   -0.4765    8.2204   -0.7860 O   0  0  0  0  0
   -0.3952    8.8662    1.5589 O   0  0  0  0  0
   -0.1648   10.5736   -0.1989 O   0  0  0  0  0
   -1.6516   10.7720   -0.1851 P   0  0  0  0  0
   -2.2838    9.8301   -1.1666 O   0  0  0  0  0
   -2.2024   10.4759    1.1783 O   0  0  0  0  0
   -1.9721   12.1833   -0.5795 O   0  0  0  0  0
    5.8281    5.9024   -0.4819 C   0  0  0  0  0
    4.9255    6.7527   -1.3258 O   0  0  0  0  0
    5.9466    4.4842   -1.0672 C   0  0  0  0  0
    5.1262    4.3538   -2.3162 O   0  0  0  0  0
  1  2  1  0  0  0
  2  3  2  0  0  0
  2 11  1  0  0  0
  3  4  1  0  0  0
  4  6  1  0  0  0
  4  5  2  0  0  0
  6  7  1  0  0  0
  6 10  2  0  0  0
  7  8  2  0  0  0
  8  9  1  0  0  0
  9 10  1  0  0  0
  9 12  1  0  0  0
 10 11  1  0  0  0
 12 31  1  0  0  0
 12 13  1  0  0  0
 13 14  1  0  0  0
 14 29  1  0  0  0
 14 15  1  0  0  0
 15 16  1  0  0  0
 16 17  1  0  0  0
 17 20  1  0  0  0
 17 19  2  0  0  0
 17 18  1  0  0  0
 20 21  1  0  0  0
 21 24  1  0  0  0
 21 23  2  0  0  0
 21 22  1  0  0  0
 24 25  1  0  0  0
 25 28  2  0  0  0
 25 27  1  0  0  0
 25 26  1  0  0  0
 29 31  1  0  0  0
 29 30  1  0  0  0
 31 32  1  0  0  0
M  END
> <SMILES>
NC1=NC(=O)C=2N=CN(C=2(N1))C3OC(COP(O)(=O)OP(O)(=O)OP(O)(O)=O)C(O)C3(O)

> <NAME>
Guanosine triphosphate_2

> <BioCyc_link>
http://biocyc.org/HUMAN/NEW-IMAGE?object=Guanosine triphosphate

> <BioCyc_name_HTML>


> <CAS>


> <KEGG_ID>


> <toxTree.tree.cramer.CramerTreeResult>


> <FORMULA>


> <toxTree.tree.cramer.CramerRules>


$$$$
Deoxyguanosine monophosphate_2
 OpenBabel30120812303D

 23 25  0  0  0  0  0  0  0  0999 V2000
    1.0000    0.0000    0.0000 N   0  0  0  0  0
    2.5000    0.0000    0.0000 C   0  0  0  0  0
    3.1915   -1.2066    0.0000 N   0  0  0  0  0
    4.4961   -1.2868    0.0124 C   0  0  0  0  0
    5.1409   -2.6411    0.0180 O   0  0  0  0  0
    5.2778   -0.1934    0.0202 C   0  0  0  0  0
    6.6414    0.0247    0.0330 N   0  0  0  0  0
    6.8498    1.3510    0.0348 C   0  0  0  0  0
    5.6219    2.0248    0.0232 N   0  0  0  0  0
    5.4434    3.5141    0.0217 C   0  0  0  0  0
    5.6336    4.2939    1.3459 C   0  0  0  0  0
    5.2569    5.7445    0.9429 C   0  0  0  0  0
    3.7702    5.9428    0.9566 O   0  0  0  0  0
    5.8281    5.9024   -0.4819 C   0  0  0  0  0
    4.9255    6.7527   -1.3258 C   0  0  0  0  0
    5.5068    6.8873   -2.7020 O   0  0  0  0  0
    4.6042    7.7376   -3.5460 P   0  0  0  0  0
    3.2577    7.0834   -3.6413 O   0  0  0  0  0
    4.4309    9.0901   -2.9209 O   0  0  0  0  0
    5.1856    7.8721   -4.9222 O   0  0  0  0  0
    5.9466    4.4842   -1.0672 O   0  0  0  0  0
    4.6494    1.1362    0.0137 C   0  0  0  0  0
    3.1879    1.2004   -0.0000 N   0  0  0  0  0
  1  2  1  0  0  0
  2  3  2  0  0  0
  2 23  1  0  0  0
  3  4  1  0  0  0
  4  6  1  0  0  0
  4  5  2  0  0  0
  6  7  1  0  0  0
  6 22  2  0  0  0
  7  8  2  0  0  0
  8  9  1  0  0  0
  9 22  1  0  0  0
  9 10  1  0  0  0
 10 21  1  0  0  0
 10 11  1  0  0  0
 11 12  1  0  0  0
 12 14  1  0  0  0
 12 13  1  0  0  0
 14 21  1  0  0  0
 14 15  1  0  0  0
 15 16  1  0  0  0
 16 17  1  0  0  0
 17 20  1  0  0  0
 17 19  1  0  0  0
 17 18  2  0  0  0
 22 23  1  0  0  0
M  END
> <SMILES>
NC2=NC(=O)C=3N=CN(C1CC(O)C(COP(=O)(O)O)O1)C=3(N2)

> <NAME>
Deoxyguanosine monophosphate_2

> <BioCyc_link>
http://biocyc.org/HUMAN/NEW-IMAGE?object=Deoxyguanosine monophosphate

> <BioCyc_name_HTML>


> <CAS>


> <KEGG_ID>


> <toxTree.tree.cramer.CramerTreeResult>


> <FORMULA>


> <toxTree.tree.cramer.CramerRules>


$$$$
Deoxyguanosine diphosphate_2
 OpenBabel30120812303D

 27 29  0  0  0  0  0  0  0  0999 V2000
    1.0000    0.0000    0.0000 N   0  0  0  0  0
    2.5000    0.0000    0.0000 C   0  0  0  0  0
    3.1915   -1.2066    0.0000 N   0  0  0  0  0
    4.4961   -1.2868    0.0124 C   0  0  0  0  0
    5.1409   -2.6411    0.0180 O   0  0  0  0  0
    5.2778   -0.1934    0.0202 C   0  0  0  0  0
    6.6414    0.0247    0.0330 N   0  0  0  0  0
    6.8498    1.3510    0.0348 C   0  0  0  0  0
    5.6219    2.0248    0.0232 N   0  0  0  0  0
    5.4434    3.5141    0.0217 C   0  0  0  0  0
    5.6336    4.2939    1.3459 C   0  0  0  0  0
    5.2569    5.7445    0.9429 C   0  0  0  0  0
    3.7702    5.9428    0.9566 O   0  0  0  0  0
    5.8281    5.9024   -0.4819 C   0  0  0  0  0
    4.9255    6.7527   -1.3258 C   0  0  0  0  0
    5.5068    6.8873   -2.7020 O   0  0  0  0  0
    4.6042    7.7376   -3.5460 P   0  0  0  0  0
    3.2577    7.0834   -3.6413 O   0  0  0  0  0
    4.4309    9.0901   -2.9209 O   0  0  0  0  0
    5.1856    7.8721   -4.9222 O   0  0  0  0  0
    4.2829    8.7224   -5.7661 P   0  0  0  0  0
    2.9364    8.0683   -5.8614 O   0  0  0  0  0
    4.1096   10.0749   -5.1411 O   0  0  0  0  0
    4.8643    8.8569   -7.1423 O   0  0  0  0  0
    5.9466    4.4842   -1.0672 O   0  0  0  0  0
    4.6494    1.1362    0.0137 C   0  0  0  0  0
    3.1879    1.2004   -0.0000 N   0  0  0  0  0
  1  2  1  0  0  0
  2  3  2  0  0  0
  2 27  1  0  0  0
  3  4  1  0  0  0
  4  6  1  0  0  0
  4  5  2  0  0  0
  6  7  1  0  0  0
  6 26  2  0  0  0
  7  8  2  0  0  0
  8  9  1  0  0  0
  9 26  1  0  0  0
  9 10  1  0  0  0
 10 25  1  0  0  0
 10 11  1  0  0  0
 11 12  1  0  0  0
 12 14  1  0  0  0
 12 13  1  0  0  0
 14 25  1  0  0  0
 14 15  1  0  0  0
 15 16  1  0  0  0
 16 17  1  0  0  0
 17 20  1  0  0  0
 17 19  1  0  0  0
 17 18  2  0  0  0
 20 21  1  0  0  0
 21 24  1  0  0  0
 21 23  1  0  0  0
 21 22  2  0  0  0
 26 27  1  0  0  0
M  END
> <SMILES>
NC2=NC(=O)C=3N=CN(C1CC(O)C(COP(=O)(O)OP(=O)(O)O)O1)C=3(N2)

> <NAME>
Deoxyguanosine diphosphate_2

> <BioCyc_link>
http://biocyc.org/HUMAN/NEW-IMAGE?object=Deoxyguanosine diphosphate

> <BioCyc_name_HTML>


> <CAS>


> <KEGG_ID>


> <toxTree.tree.cramer.CramerTreeResult>


> <FORMULA>


> <toxTree.tree.cramer.CramerRules>


$$$$
Deoxyguanosine triphosphate_2
 OpenBabel30120812303D

 31 33  0  0  0  0  0  0  0  0999 V2000
    1.0000    0.0000    0.0000 N   0  0  0  0  0
    2.5000    0.0000    0.0000 C   0  0  0  0  0
    3.1915   -1.2066    0.0000 N   0  0  0  0  0
    4.4961   -1.2868    0.0124 C   0  0  0  0  0
    5.1409   -2.6411    0.0180 O   0  0  0  0  0
    5.2778   -0.1934    0.0202 C   0  0  0  0  0
    6.6414    0.0247    0.0330 N   0  0  0  0  0
    6.8498    1.3510    0.0348 C   0  0  0  0  0
    5.6219    2.0248    0.0232 N   0  0  0  0  0
    5.4434    3.5141    0.0217 C   0  0  0  0  0
    5.6336    4.2939    1.3459 C   0  0  0  0  0
    5.2569    5.7445    0.9429 C   0  0  0  0  0
    3.7702    5.9428    0.9566 O   0  0  0  0  0
    5.8281    5.9024   -0.4819 C   0  0  0  0  0
    4.9255    6.7527   -1.3258 C   0  0  0  0  0
    5.5068    6.8873   -2.7020 O   0  0  0  0  0
    4.6042    7.7376   -3.5460 P   0  0  0  0  0
    3.2577    7.0834   -3.6413 O   0  0  0  0  0
    4.4309    9.0901   -2.9209 O   0  0  0  0  0
    5.1856    7.8721   -4.9222 O   0  0  0  0  0
    4.2829    8.7224   -5.7661 P   0  0  0  0  0
    2.9364    8.0683   -5.8614 O   0  0  0  0  0
    4.1096   10.0749   -5.1411 O   0  0  0  0  0
    4.8643    8.8569   -7.1423 O   0  0  0  0  0
    3.9616    9.7072   -7.9863 P   0  0  0  0  0
    2.6152    9.0531   -8.0816 O   0  0  0  0  0
    3.7883   11.0597   -7.3612 O   0  0  0  0  0
    4.5430    9.8418   -9.3625 O   0  0  0  0  0
    5.9466    4.4842   -1.0672 O   0  0  0  0  0
    4.6494    1.1362    0.0137 C   0  0  0  0  0
    3.1879    1.2004   -0.0000 N   0  0  0  0  0
  1  2  1  0  0  0
  2  3  2  0  0  0
  2 31  1  0  0  0
  3  4  1  0  0  0
  4  6  1  0  0  0
  4  5  2  0  0  0
  6  7  1  0  0  0
  6 30  2  0  0  0
  7  8  2  0  0  0
  8  9  1  0  0  0
  9 30  1  0  0  0
  9 10  1  0  0  0
 10 29  1  0  0  0
 10 11  1  0  0  0
 11 12  1  0  0  0
 12 14  1  0  0  0
 12 13  1  0  0  0
 14 29  1  0  0  0
 14 15  1  0  0  0
 15 16  1  0  0  0
 16 17  1  0  0  0
 17 20  1  0  0  0
 17 19  1  0  0  0
 17 18  2  0  0  0
 20 21  1  0  0  0
 21 24  1  0  0  0
 21 23  1  0  0  0
 21 22  2  0  0  0
 24 25  1  0  0  0
 25 28  1  0  0  0
 25 27  2  0  0  0
 25 26  1  0  0  0
 30 31  1  0  0  0
M  END
> <SMILES>
NC2=NC(=O)C=3N=CN(C1CC(O)C(COP(=O)(O)OP(=O)(O)OP(O)(=O)O)O1)C=3(N2)

> <NAME>
Deoxyguanosine triphosphate_2

> <BioCyc_link>
http://biocyc.org/HUMAN/NEW-IMAGE?object=Deoxyguanosine triphosphate

> <BioCyc_name_HTML>


> <CAS>


> <KEGG_ID>


> <toxTree.tree.cramer.CramerTreeResult>


> <FORMULA>


> <toxTree.tree.cramer.CramerRules>


$$$$
10-FORMYL-THF_2
 OpenBabel30120812303D

 34 36  0  0  0  0  0  0  0  0999 V2000
    1.0000    0.0000    0.0000 N   0  0  0  0  0
    2.5000    0.0000    0.0000 C   0  0  0  0  0
    3.2026   -1.2058    0.0488 N   0  0  0  0  0
    4.5957   -1.1874    0.0565 C   0  0  0  0  0
    5.3574   -2.4781    0.1204 O   0  0  0  0  0
    5.2824    0.0151    0.0056 C   0  0  0  0  0
    6.7882   -0.0385    0.0189 N   0  0  0  0  0
    7.3774    1.2851   -0.4630 C   0  0  0  0  0
    6.7263    2.4223    0.3323 C   0  0  0  0  0
    5.2682    2.5428   -0.1071 N   0  0  0  0  0
    4.5835    1.2024   -0.0463 C   0  0  0  0  0
    3.1926    1.1886   -0.0481 N   0  0  0  0  0
    8.8652    1.2970   -0.2722 C   0  0  0  0  0
    9.4211    2.6050   -0.7519 N   0  0  0  0  0
    8.5027    3.6492   -1.3142 C   0  0  0  0  0
    7.0284    3.3855   -1.3967 O   0  0  0  0  0
   10.8954    2.8688   -0.6693 C   0  0  0  0  0
   11.7816    1.8134   -0.6186 C   0  0  0  0  0
   13.1531    2.0600   -0.5295 C   0  0  0  0  0
   13.6179    3.3758   -0.4984 C   0  0  0  0  0
   12.7215    4.4221   -0.5558 C   0  0  0  0  0
   11.3631    4.1709   -0.6441 C   0  0  0  0  0
   15.0893    3.6511   -0.4028 C   0  0  0  0  0
   16.0630    2.5117   -0.3405 O   0  0  0  0  0
   15.5871    5.0657   -0.3696 N   0  0  0  0  0
   17.0585    5.3410   -0.2740 C   0  0  0  0  0
   17.7802    4.7148   -1.4303 C   0  0  0  0  0
   17.5368    3.2346   -1.4302 C   0  0  0  0  0
   18.2584    2.6085   -2.5865 C   0  0  0  0  0
   19.0642    3.4631   -3.5194 O   0  0  0  0  0
   18.1743    1.1276   -2.8100 O   0  0  0  0  0
   17.2907    6.8228   -0.2579 C   0  0  0  0  0
   16.1261    7.7652   -0.3327 O   0  0  0  0  0
   18.6874    7.3622   -0.1670 O   0  0  0  0  0
  1  2  1  0  0  0
  2 12  1  0  0  0
  2  3  2  0  0  0
  3  4  1  0  0  0
  4  6  1  0  0  0
  4  5  2  0  0  0
  6 11  2  0  0  0
  6  7  1  0  0  0
  7  8  1  0  0  0
  8  9  1  0  0  0
  8 13  1  0  0  0
  9 10  1  0  0  0
 10 11  1  0  0  0
 11 12  1  0  0  0
 13 14  1  0  0  0
 14 17  1  0  0  0
 14 15  1  0  0  0
 15 16  2  0  0  0
 17 22  1  0  0  0
 17 18  2  0  0  0
 18 19  1  0  0  0
 19 20  2  0  0  0
 20 21  1  0  0  0
 20 23  1  0  0  0
 21 22  2  0  0  0
 23 25  1  0  0  0
 23 24  2  0  0  0
 25 26  1  0  0  0
 26 32  1  0  0  0
 26 27  1  0  0  0
 27 28  1  0  0  0
 28 29  1  0  0  0
 29 31  1  0  0  0
 29 30  2  0  0  0
 32 34  1  0  0  0
 32 33  2  0  0  0
M  END
> <SMILES>
NC1=NC(=O)C=2NC(CNC=2(N1))CN(C=O)C3=CC=C(C=C3)C(=O)NC(CCC(=O)O)C(=O)O

> <NAME>
10-FORMYL-THF_2

> <BioCyc_link>
http://biocyc.org/HUMAN/NEW-IMAGE?object=10-FORMYL-THF

> <BioCyc_name_HTML>
10-formyl-tetrahydrofolate

> <CAS>
2800-34-2

> <KEGG_ID>
C00234

> <toxTree.tree.cramer.CramerTreeResult>


> <FORMULA>


> <toxTree.tree.cramer.CramerRules>


$$$$
TETRA-H-BIOPTERIN_2
 OpenBabel30120812303D

 17 18  0  0  0  0  0  0  0  0999 V2000
    1.0000    0.0000    0.0000 C   0  0  0  0  0
    2.5000    0.0000    0.0000 C   0  0  0  0  0
    3.0193   -0.7348   -1.2002 O   0  0  0  0  0
    3.0007    1.4140    0.0000 C   0  0  0  0  0
    2.4814    2.1488    1.2002 O   0  0  0  0  0
    4.5007    1.4140    0.0000 C   0  0  0  0  0
    5.0364    1.4248    1.4362 C   0  0  0  0  0
    6.5375    1.1451    1.3916 N   0  0  0  0  0
    7.2195    2.0653    0.4131 C   0  0  0  0  0
    8.5994    2.2071    0.5161 N   0  0  0  0  0
    9.2896    3.0266   -0.3480 C   0  0  0  0  0
   10.7774    3.1721   -0.2239 N   0  0  0  0  0
    8.5961    3.7218   -1.3409 N   0  0  0  0  0
    7.2133    3.5818   -1.4368 C   0  0  0  0  0
    6.4598    4.3342   -2.4933 O   0  0  0  0  0
    6.5291    2.7521   -0.5628 C   0  0  0  0  0
    5.0343    2.6489   -0.7223 N   0  0  0  0  0
  1  2  1  0  0  0
  2  4  1  0  0  0
  2  3  1  0  0  0
  4  6  1  0  0  0
  4  5  1  0  0  0
  6  7  1  0  0  0
  6 17  1  0  0  0
  7  8  1  0  0  0
  8  9  1  0  0  0
  9 10  1  0  0  0
  9 16  2  0  0  0
 10 11  1  0  0  0
 11 13  2  0  0  0
 11 12  1  0  0  0
 13 14  1  0  0  0
 14 16  1  0  0  0
 14 15  2  0  0  0
 16 17  1  0  0  0
M  END
> <SMILES>
CC(O)C(O)C1CNC=2NC(N)=NC(=O)C=2(N1)

> <NAME>
TETRA-H-BIOPTERIN_2

> <BioCyc_link>
http://biocyc.org/HUMAN/NEW-IMAGE?object=TETRA-H-BIOPTERIN

> <BioCyc_name_HTML>
tetrahydrobiopterin

> <CAS>
17528-72-2

> <KEGG_ID>
C00272

> <toxTree.tree.cramer.CramerTreeResult>


> <FORMULA>


> <toxTree.tree.cramer.CramerRules>


$$$$
THF_2
 OpenBabel30120812303D

 32 34  0  0  0  0  0  0  0  0999 V2000
    1.0000    0.0000    0.0000 N   0  0  0  0  0
    2.5000    0.0000    0.0000 C   0  0  0  0  0
    3.2026   -1.2058    0.0488 N   0  0  0  0  0
    4.5957   -1.1874    0.0565 C   0  0  0  0  0
    5.3574   -2.4781    0.1204 O   0  0  0  0  0
    5.2824    0.0151    0.0056 C   0  0  0  0  0
    6.7882   -0.0385    0.0189 N   0  0  0  0  0
    7.3774    1.2851   -0.4630 C   0  0  0  0  0
    8.8652    1.2970   -0.2722 C   0  0  0  0  0
    9.4211    2.6050   -0.7519 N   0  0  0  0  0
   10.8954    2.8688   -0.6693 C   0  0  0  0  0
   11.7816    1.8134   -0.6186 C   0  0  0  0  0
   13.1531    2.0600   -0.5295 C   0  0  0  0  0
   13.6179    3.3758   -0.4984 C   0  0  0  0  0
   12.7215    4.4221   -0.5558 C   0  0  0  0  0
   11.3631    4.1709   -0.6441 C   0  0  0  0  0
   15.0893    3.6511   -0.4028 C   0  0  0  0  0
   16.0630    2.5117   -0.3405 O   0  0  0  0  0
   15.5871    5.0657   -0.3696 N   0  0  0  0  0
   17.0585    5.3410   -0.2740 C   0  0  0  0  0
   17.7802    4.7148   -1.4303 C   0  0  0  0  0
   17.5368    3.2346   -1.4302 C   0  0  0  0  0
   18.2584    2.6085   -2.5865 C   0  0  0  0  0
   19.0642    3.4631   -3.5194 O   0  0  0  0  0
   18.1743    1.1276   -2.8100 O   0  0  0  0  0
   17.2907    6.8228   -0.2579 C   0  0  0  0  0
   16.1261    7.7652   -0.3327 O   0  0  0  0  0
   18.6874    7.3622   -0.1670 O   0  0  0  0  0
    6.7263    2.4223    0.3323 C   0  0  0  0  0
    5.2682    2.5428   -0.1071 N   0  0  0  0  0
    4.5835    1.2024   -0.0463 C   0  0  0  0  0
    3.1926    1.1886   -0.0481 N   0  0  0  0  0
  1  2  1  0  0  0
  2 32  1  0  0  0
  2  3  2  0  0  0
  3  4  1  0  0  0
  4  6  1  0  0  0
  4  5  2  0  0  0
  6 31  2  0  0  0
  6  7  1  0  0  0
  7  8  1  0  0  0
  8 29  1  0  0  0
  8  9  1  0  0  0
  9 10  1  0  0  0
 10 11  1  0  0  0
 11 16  1  0  0  0
 11 12  2  0  0  0
 12 13  1  0  0  0
 13 14  2  0  0  0
 14 15  1  0  0  0
 14 17  1  0  0  0
 15 16  2  0  0  0
 17 19  1  0  0  0
 17 18  2  0  0  0
 19 20  1  0  0  0
 20 26  1  0  0  0
 20 21  1  0  0  0
 21 22  1  0  0  0
 22 23  1  0  0  0
 23 25  1  0  0  0
 23 24  2  0  0  0
 26 28  1  0  0  0
 26 27  2  0  0  0
 29 30  1  0  0  0
 30 31  1  0  0  0
 31 32  1  0  0  0
M  END
> <SMILES>
NC2=NC(=O)C=3NC(CNC1=CC=C(C=C1)C(=O)NC(CCC(=O)O)C(=O)O)CNC=3(N2)

> <NAME>
THF_2

> <BioCyc_link>
http://biocyc.org/HUMAN/NEW-IMAGE?object=THF

> <BioCyc_name_HTML>
tetrahydrofolate

> <CAS>
29347-89-5

> <KEGG_ID>
C00101

> <toxTree.tree.cramer.CramerTreeResult>


> <FORMULA>


> <toxTree.tree.cramer.CramerRules>


$$$$
7-8-DIHYDROPTEROATE_2
 OpenBabel30120812303D

 23 25  0  0  0  0  0  0  0  0999 V2000
    1.0000    0.0000    0.0000 N   0  0  0  0  0
    2.5000    0.0000    0.0000 C   0  0  0  0  0
    3.1869   -1.2073    0.0025 N   0  0  0  0  0
    4.5531   -1.2367   -0.0085 C   0  0  0  0  0
    5.2786   -2.5496   -0.0187 O   0  0  0  0  0
    5.2705   -0.0387   -0.0101 C   0  0  0  0  0
    6.7334   -0.0154   -0.0144 N   0  0  0  0  0
    7.3654    1.1201   -0.0157 C   0  0  0  0  0
    8.8653    1.1083   -0.0200 C   0  0  0  0  0
    9.3772    2.5183   -0.0208 N   0  0  0  0  0
   10.8542    2.7800   -0.0249 C   0  0  0  0  0
   11.7401    1.7232   -0.0258 C   0  0  0  0  0
   13.1148    1.9675   -0.0175 C   0  0  0  0  0
   13.5828    3.2825   -0.0143 C   0  0  0  0  0
   12.6862    4.3303   -0.0194 C   0  0  0  0  0
   11.3246    4.0813   -0.0277 C   0  0  0  0  0
   15.0577    3.5554   -0.0053 C   0  0  0  0  0
   16.0315    2.4145    0.0002 O   0  0  0  0  0
   15.5589    4.9692   -0.0019 O   0  0  0  0  0
    6.7062    2.3497   -0.0133 C   0  0  0  0  0
    5.3590    2.4333   -0.0094 N   0  0  0  0  0
    4.5755    1.1915   -0.0076 C   0  0  0  0  0
    3.1812    1.1973   -0.0025 N   0  0  0  0  0
  1  2  1  0  0  0
  2  3  2  0  0  0
  2 23  1  0  0  0
  3  4  1  0  0  0
  4  6  1  0  0  0
  4  5  2  0  0  0
  6 22  2  0  0  0
  6  7  1  0  0  0
  7  8  2  0  0  0
  8 20  1  0  0  0
  8  9  1  0  0  0
  9 10  1  0  0  0
 10 11  1  0  0  0
 11 16  1  0  0  0
 11 12  2  0  0  0
 12 13  1  0  0  0
 13 14  2  0  0  0
 14 15  1  0  0  0
 14 17  1  0  0  0
 15 16  2  0  0  0
 17 19  1  0  0  0
 17 18  2  0  0  0
 20 21  1  0  0  0
 21 22  1  0  0  0
 22 23  1  0  0  0
M  END
> <SMILES>
NC2=NC(=O)C=3N=C(CNC1=CC=C(C=C1)C(=O)O)CNC=3(N2)

> <NAME>
7-8-DIHYDROPTEROATE_2

> <BioCyc_link>
http://biocyc.org/HUMAN/NEW-IMAGE?object=7-8-DIHYDROPTEROATE

> <BioCyc_name_HTML>
7,8-dihydropteroate

> <CAS>


> <KEGG_ID>
C00921

> <toxTree.tree.cramer.CramerTreeResult>


> <FORMULA>


> <toxTree.tree.cramer.CramerRules>


$$$$
DEOXYGUANOSINE_2
 OpenBabel30120812303D

 22 24  0  0  0  0  0  0  0  0999 V2000
    1.0000    0.0000    0.0000 H   0  0  0  0  0
    2.5000    0.0000    0.0000 C   0  0  0  0  0
    2.9034    0.1217   -1.4396 O   0  0  0  0  0
    3.0599    1.1537    0.8679 C   0  0  0  0  0
    4.4904    0.6582    1.2094 C   0  0  0  0  0
    5.0630    1.3496    2.4111 H   0  0  0  0  0
    4.3235   -0.8601    1.4286 O   0  0  0  0  0
    3.0578   -1.2782    0.6595 C   0  0  0  0  0
    2.0467   -1.8906    1.5829 H   0  0  0  0  0
    3.3824   -2.3132   -0.3765 C   0  0  0  0  0
    2.1309   -2.6995   -1.1076 O   0  0  0  0  0
    5.4454    0.9430    0.0883 N   0  0  0  0  0
    6.1375    0.0329   -0.6155 C   0  0  0  0  0
    6.9010    0.6737   -1.5995 N   0  0  0  0  0
    6.6943    1.9723   -1.5194 C   0  0  0  0  0
    7.1824    3.1454   -2.2447 C   0  0  0  0  0
    8.1503    3.0122   -3.3829 O   0  0  0  0  0
    6.7152    4.3825   -1.8381 N   0  0  0  0  0
    5.8084    4.4812   -0.7884 C   0  0  0  0  0
    5.3204    5.8440   -0.3949 N   0  0  0  0  0
    5.3597    3.4468   -0.1271 N   0  0  0  0  0
    5.7422    2.1921   -0.4204 C   0  0  0  0  0
  1  2  1  0  0  0
  2  8  1  0  0  0
  2  4  1  0  0  0
  2  3  1  0  0  0
  4  5  1  0  0  0
  5  7  1  0  0  0
  5 12  1  0  0  0
  5  6  1  0  0  0
  7  8  1  0  0  0
  8 10  1  0  0  0
  8  9  1  0  0  0
 10 11  1  0  0  0
 12 22  1  0  0  0
 12 13  1  0  0  0
 13 14  2  0  0  0
 14 15  1  0  0  0
 15 22  2  0  0  0
 15 16  1  0  0  0
 16 18  1  0  0  0
 16 17  2  0  0  0
 18 19  2  0  0  0
 19 21  1  0  0  0
 19 20  1  0  0  0
 21 22  1  0  0  0
M  END
> <SMILES>
[H]C1(O)(CC([H])(OC1([H])(CO))N3C=NC=2C(=O)N=C(N)NC=23)

> <NAME>
DEOXYGUANOSINE_2

> <BioCyc_link>
http://biocyc.org/HUMAN/NEW-IMAGE?object=DEOXYGUANOSINE

> <BioCyc_name_HTML>
deoxyguanosine

> <CAS>
961-07-9

> <KEGG_ID>
C00330

> <toxTree.tree.cramer.CramerTreeResult>


> <FORMULA>


> <toxTree.tree.cramer.CramerRules>


$$$$
METHYLENE-THF_2
 OpenBabel30120812303D

 34 37  0  0  0  0  0  0  0  0999 V2000
    1.0000    0.0000    0.0000 H   0  0  0  0  0
    2.5000    0.0000    0.0000 C   0  0  0  0  0
    3.3642   -1.1899    0.4324 C   0  0  0  0  0
    4.4207   -1.4331   -0.6438 N   0  0  0  0  0
    5.1501   -0.1558   -0.9691 C   0  0  0  0  0
    6.3673   -0.2603   -1.6343 N   0  0  0  0  0
    7.0860    0.8650   -1.9686 C   0  0  0  0  0
    8.3984    0.7375   -2.6837 N   0  0  0  0  0
    6.5857    2.1261   -1.6380 N   0  0  0  0  0
    5.3691    2.2262   -0.9664 C   0  0  0  0  0
    4.8307    3.5768   -0.5975 O   0  0  0  0  0
    4.6532    1.0865   -0.6368 C   0  0  0  0  0
    3.3460    1.2679    0.0906 N   0  0  0  0  0
    4.5485   -0.7941   -0.8450 C   0  0  0  0  0
    5.7648    1.3328   -1.1653 N   0  0  0  0  0
    5.9142   -0.1969   -1.2425 C   0  0  0  0  0
    6.0772    2.7985   -1.2281 C   0  0  0  0  0
    7.3711    3.2221   -1.4471 C   0  0  0  0  0
    7.6578    4.5878   -1.4935 C   0  0  0  0  0
    6.6293    5.5159   -1.3234 C   0  0  0  0  0
    5.3386    5.0791   -1.1110 C   0  0  0  0  0
    5.0610    3.7237   -1.0661 C   0  0  0  0  0
    6.9271    6.9853   -1.3716 C   0  0  0  0  0
    8.3315    7.4586   -1.6027 O   0  0  0  0  0
    5.8205    7.9812   -1.1887 N   0  0  0  0  0
    6.1183    9.4506   -1.2368 C   0  0  0  0  0
    6.7365    9.8122   -2.5548 C   0  0  0  0  0
    8.0011    9.0285   -2.7466 C   0  0  0  0  0
    8.6192    9.3902   -4.0645 C   0  0  0  0  0
    7.9561   10.4018   -4.9516 O   0  0  0  0  0
    9.9005    8.7401   -4.4955 O   0  0  0  0  0
    4.8511   10.2254   -1.0276 C   0  0  0  0  0
    3.5553    9.5006   -0.8145 O   0  0  0  0  0
    4.8798   11.7252   -1.0314 O   0  0  0  0  0
  1  2  1  0  0  0
  2  3  1  0  0  0
  2 13  1  0  0  0
  2 16  1  0  0  0
  3  4  1  0  0  0
  4  5  1  0  0  0
  5  6  1  0  0  0
  5 12  2  0  0  0
  6  7  1  0  0  0
  7  9  2  0  0  0
  7  8  1  0  0  0
  9 10  1  0  0  0
 10 12  1  0  0  0
 10 11  2  0  0  0
 12 13  1  0  0  0
 13 14  1  0  0  0
 14 15  1  0  0  0
 15 16  1  0  0  0
 15 17  1  0  0  0
 17 22  1  0  0  0
 17 18  2  0  0  0
 18 19  1  0  0  0
 19 20  2  0  0  0
 20 21  1  0  0  0
 20 23  1  0  0  0
 21 22  2  0  0  0
 23 25  1  0  0  0
 23 24  2  0  0  0
 25 26  1  0  0  0
 26 32  1  0  0  0
 26 27  1  0  0  0
 27 28  1  0  0  0
 28 29  1  0  0  0
 29 31  1  0  0  0
 29 30  2  0  0  0
 32 34  1  0  0  0
 32 33  2  0  0  0
M  END
> <SMILES>
[H]C24(CNC=1NC(N)=NC(=O)C=1N4(CN(C2)C3=CC=C(C=C3)C(=O)NC(CCC(=O)O)C(=O)O))

> <NAME>
METHYLENE-THF_2

> <BioCyc_link>
http://biocyc.org/HUMAN/NEW-IMAGE?object=METHYLENE-THF

> <BioCyc_name_HTML>
5,10-methylene-THF

> <CAS>


> <KEGG_ID>
C00143

> <toxTree.tree.cramer.CramerTreeResult>


> <FORMULA>


> <toxTree.tree.cramer.CramerRules>


$$$$
5-METHYL-THF_2
 OpenBabel30120812303D

 34 36  0  0  0  0  0  0  0  0999 V2000
    1.0000    0.0000    0.0000 H   0  0  0  0  0
    2.5000    0.0000    0.0000 C   0  0  0  0  0
    2.9931   -0.6977    1.2329 C   0  0  0  0  0
    2.4869    0.0185    2.4498 C   0  0  0  0  0
    2.9800   -0.6792    3.6827 C   0  0  0  0  0
    3.8428   -1.9000    3.5593 O   0  0  0  0  0
    2.6103   -0.1561    5.0391 O   0  0  0  0  0
    3.0193   -0.7348   -1.2002 N   0  0  0  0  0
    2.6508   -2.1726   -1.4167 C   0  0  0  0  0
    1.7630   -2.8756   -0.4330 O   0  0  0  0  0
    3.1701   -2.9074   -2.6168 C   0  0  0  0  0
    2.9289   -4.2637   -2.6817 C   0  0  0  0  0
    3.2603   -4.9749   -3.8367 C   0  0  0  0  0
    3.8289   -4.3050   -4.9213 C   0  0  0  0  0
    4.0593   -2.9475   -4.8456 C   0  0  0  0  0
    3.7285   -2.2483   -3.6977 C   0  0  0  0  0
    4.1884   -5.0602   -6.1665 N   0  0  0  0  0
    4.7993   -4.3388   -7.3311 C   0  0  0  0  0
    5.0620   -5.3125   -8.4414 C   0  0  0  0  0
    4.9914   -6.7465   -7.9044 C   0  0  0  0  0
    4.8198   -7.6956   -9.0890 N   0  0  0  0  0
    5.8619   -7.4230  -10.1421 C   0  0  0  0  0
    6.0889   -8.4107  -11.0950 N   0  0  0  0  0
    7.0220   -8.2280  -12.0902 C   0  0  0  0  0
    7.2584   -9.3026  -13.1097 N   0  0  0  0  0
    7.7473   -7.0359  -12.1448 N   0  0  0  0  0
    7.5213   -6.0517  -11.1850 C   0  0  0  0  0
    8.3046   -4.7733  -11.2302 O   0  0  0  0  0
    6.5777   -6.2457  -10.1889 C   0  0  0  0  0
    6.3858   -5.1405   -9.1828 N   0  0  0  0  0
    7.3602   -4.0257   -8.9427 C   0  0  0  0  0
    3.0007    1.4140    0.0000 C   0  0  0  0  0
    2.0265    2.5546    0.0000 O   0  0  0  0  0
    4.4756    1.6873    0.0000 O   0  0  0  0  0
  1  2  1  0  0  0
  2 32  1  0  0  0
  2  8  1  0  0  0
  2  3  1  0  0  0
  3  4  1  0  0  0
  4  5  1  0  0  0
  5  7  1  0  0  0
  5  6  2  0  0  0
  8  9  1  0  0  0
  9 11  1  0  0  0
  9 10  2  0  0  0
 11 16  1  0  0  0
 11 12  2  0  0  0
 12 13  1  0  0  0
 13 14  2  0  0  0
 14 15  1  0  0  0
 14 17  1  0  0  0
 15 16  2  0  0  0
 17 18  1  0  0  0
 18 19  1  0  0  0
 19 20  1  0  0  0
 19 30  1  0  0  0
 20 21  1  0  0  0
 21 22  1  0  0  0
 22 23  1  0  0  0
 22 29  2  0  0  0
 23 24  1  0  0  0
 24 26  2  0  0  0
 24 25  1  0  0  0
 26 27  1  0  0  0
 27 29  1  0  0  0
 27 28  2  0  0  0
 29 30  1  0  0  0
 30 31  1  0  0  0
 32 34  1  0  0  0
 32 33  2  0  0  0
M  END
> <SMILES>
[H]C(CCC(=O)O)(NC(=O)C1=CC=C(C=C1)NCC3CNC=2NC(N)=NC(=O)C=2N3(C))C(=O)O

> <NAME>
5-METHYL-THF_2

> <BioCyc_link>
http://biocyc.org/HUMAN/NEW-IMAGE?object=5-METHYL-THF

> <BioCyc_name_HTML>
5-methyl-THF

> <CAS>
134-35-0

> <KEGG_ID>
C00440

> <toxTree.tree.cramer.CramerTreeResult>


> <FORMULA>


> <toxTree.tree.cramer.CramerRules>


$$$$
INOSINE_2
 OpenBabel30120812303D

 23 25  0  0  0  0  0  0  0  0999 V2000
    1.0000    0.0000    0.0000 H   0  0  0  0  0
    2.5000    0.0000    0.0000 C   0  0  0  0  0
    2.9034    0.1217   -1.4396 C   0  0  0  0  0
    4.3999    0.1302   -1.5413 O   0  0  0  0  0
    3.0599    1.1537    0.8679 O   0  0  0  0  0
    4.4904    0.6582    1.2094 C   0  0  0  0  0
    5.0630    1.3496    2.4111 H   0  0  0  0  0
    5.4454    0.9430    0.0883 N   0  0  0  0  0
    6.1375    0.0329   -0.6155 C   0  0  0  0  0
    6.9010    0.6737   -1.5995 N   0  0  0  0  0
    6.6943    1.9723   -1.5194 C   0  0  0  0  0
    7.1824    3.1454   -2.2447 C   0  0  0  0  0
    8.1503    3.0122   -3.3829 O   0  0  0  0  0
    6.7152    4.3825   -1.8381 N   0  0  0  0  0
    5.8084    4.4812   -0.7884 C   0  0  0  0  0
    5.3597    3.4468   -0.1271 N   0  0  0  0  0
    5.7422    2.1921   -0.4204 C   0  0  0  0  0
    4.3235   -0.8601    1.4286 C   0  0  0  0  0
    4.1957   -1.1812    2.8882 H   0  0  0  0  0
    5.5233   -1.6057    0.9241 O   0  0  0  0  0
    3.0578   -1.2782    0.6595 C   0  0  0  0  0
    2.0467   -1.8906    1.5829 H   0  0  0  0  0
    3.3824   -2.3132   -0.3765 O   0  0  0  0  0
  1  2  1  0  0  0
  2 21  1  0  0  0
  2  5  1  0  0  0
  2  3  1  0  0  0
  3  4  1  0  0  0
  5  6  1  0  0  0
  6 18  1  0  0  0
  6  8  1  0  0  0
  6  7  1  0  0  0
  8 17  1  0  0  0
  8  9  1  0  0  0
  9 10  2  0  0  0
 10 11  1  0  0  0
 11 17  2  0  0  0
 11 12  1  0  0  0
 12 14  1  0  0  0
 12 13  2  0  0  0
 14 15  2  0  0  0
 15 16  1  0  0  0
 16 17  1  0  0  0
 18 21  1  0  0  0
 18 20  1  0  0  0
 18 19  1  0  0  0
 21 23  1  0  0  0
 21 22  1  0  0  0
M  END
> <SMILES>
[H]C3(CO)(OC([H])(N2C=NC=1C(=O)N=CNC=12)C([H])(O)C3([H])(O))

> <NAME>
INOSINE_2

> <BioCyc_link>
http://biocyc.org/HUMAN/NEW-IMAGE?object=INOSINE

> <BioCyc_name_HTML>
inosine

> <CAS>
58-63-9

> <KEGG_ID>
C00294

> <toxTree.tree.cramer.CramerTreeResult>


> <FORMULA>


> <toxTree.tree.cramer.CramerRules>


$$$$
DEOXYINOSINE_2
 OpenBabel30120812303D

 21 23  0  0  0  0  0  0  0  0999 V2000
    1.0000    0.0000    0.0000 H   0  0  0  0  0
    2.5000    0.0000    0.0000 C   0  0  0  0  0
    2.9034    0.1217   -1.4396 O   0  0  0  0  0
    3.0599    1.1537    0.8679 C   0  0  0  0  0
    4.4904    0.6582    1.2094 C   0  0  0  0  0
    5.0630    1.3496    2.4111 H   0  0  0  0  0
    4.3235   -0.8601    1.4286 O   0  0  0  0  0
    3.0578   -1.2782    0.6595 C   0  0  0  0  0
    2.0467   -1.8906    1.5829 H   0  0  0  0  0
    3.3824   -2.3132   -0.3765 C   0  0  0  0  0
    2.1309   -2.6995   -1.1076 O   0  0  0  0  0
    5.4454    0.9430    0.0883 N   0  0  0  0  0
    6.1375    0.0329   -0.6155 C   0  0  0  0  0
    6.9010    0.6737   -1.5995 N   0  0  0  0  0
    6.6943    1.9723   -1.5194 C   0  0  0  0  0
    7.1824    3.1454   -2.2447 C   0  0  0  0  0
    8.1503    3.0122   -3.3829 O   0  0  0  0  0
    6.7152    4.3825   -1.8381 N   0  0  0  0  0
    5.8084    4.4812   -0.7884 C   0  0  0  0  0
    5.3597    3.4468   -0.1271 N   0  0  0  0  0
    5.7422    2.1921   -0.4204 C   0  0  0  0  0
  1  2  1  0  0  0
  2  8  1  0  0  0
  2  4  1  0  0  0
  2  3  1  0  0  0
  4  5  1  0  0  0
  5  7  1  0  0  0
  5 12  1  0  0  0
  5  6  1  0  0  0
  7  8  1  0  0  0
  8 10  1  0  0  0
  8  9  1  0  0  0
 10 11  1  0  0  0
 12 21  1  0  0  0
 12 13  1  0  0  0
 13 14  2  0  0  0
 14 15  1  0  0  0
 15 21  2  0  0  0
 15 16  1  0  0  0
 16 18  1  0  0  0
 16 17  2  0  0  0
 18 19  2  0  0  0
 19 20  1  0  0  0
 20 21  1  0  0  0
M  END
> <SMILES>
[H]C1(O)(CC([H])(OC1([H])(CO))N3C=NC=2C(=O)N=CNC=23)

> <NAME>
DEOXYINOSINE_2

> <BioCyc_link>
http://biocyc.org/HUMAN/NEW-IMAGE?object=DEOXYINOSINE

> <BioCyc_name_HTML>
deoxyinosine

> <CAS>
890-38-0

> <KEGG_ID>
C05512

> <toxTree.tree.cramer.CramerTreeResult>


> <FORMULA>


> <toxTree.tree.cramer.CramerRules>


$$$$
HYPOXANTHINE_2
 OpenBabel30120812303D

 10 11  0  0  0  0  0  0  0  0999 V2000
    1.0000    0.0000    0.0000 O   0  0  0  0  0
    2.5000    0.0000    0.0000 C   0  0  0  0  0
    3.2198   -1.1815    0.0025 N   0  0  0  0  0
    4.6102   -1.1577   -0.0102 C   0  0  0  0  0
    5.3097   -0.0535   -0.0126 N   0  0  0  0  0
    4.7290    1.1586   -0.0088 C   0  0  0  0  0
    5.1956    2.4585   -0.0100 N   0  0  0  0  0
    4.1342    3.2806   -0.0049 C   0  0  0  0  0
    2.9518    2.5299   -0.0002 N   0  0  0  0  0
    3.2611    1.2494   -0.0027 C   0  0  0  0  0
  1  2  2  0  0  0
  2  3  1  0  0  0
  2 10  1  0  0  0
  3  4  2  0  0  0
  4  5  1  0  0  0
  5  6  1  0  0  0
  6  7  1  0  0  0
  6 10  2  0  0  0
  7  8  2  0  0  0
  8  9  1  0  0  0
  9 10  1  0  0  0
M  END
> <SMILES>
O=C1N=CNC=2N=CNC1=2

> <NAME>
HYPOXANTHINE_2

> <BioCyc_link>
http://biocyc.org/HUMAN/NEW-IMAGE?object=HYPOXANTHINE

> <BioCyc_name_HTML>
hypoxanthine

> <CAS>
68-94-0

> <KEGG_ID>
C00262

> <toxTree.tree.cramer.CramerTreeResult>


> <FORMULA>


> <toxTree.tree.cramer.CramerRules>


$$$$
DIHYDROFOLATE_2
 OpenBabel30120812303D

 33 35  0  0  0  0  0  0  0  0999 V2000
    1.0000    0.0000    0.0000 H   0  0  0  0  0
    2.5000    0.0000    0.0000 C   0  0  0  0  0
    2.9931   -0.6977    1.2329 C   0  0  0  0  0
    2.4869    0.0185    2.4498 C   0  0  0  0  0
    2.9800   -0.6792    3.6827 C   0  0  0  0  0
    3.8428   -1.9000    3.5593 O   0  0  0  0  0
    2.6103   -0.1561    5.0391 O   0  0  0  0  0
    3.0193   -0.7348   -1.2002 N   0  0  0  0  0
    2.6508   -2.1726   -1.4167 C   0  0  0  0  0
    1.7630   -2.8756   -0.4330 O   0  0  0  0  0
    3.1701   -2.9074   -2.6168 C   0  0  0  0  0
    2.9289   -4.2637   -2.6817 C   0  0  0  0  0
    3.2603   -4.9749   -3.8367 C   0  0  0  0  0
    3.8289   -4.3050   -4.9213 C   0  0  0  0  0
    4.0593   -2.9475   -4.8456 C   0  0  0  0  0
    3.7285   -2.2483   -3.6977 C   0  0  0  0  0
    4.1884   -5.0602   -6.1665 N   0  0  0  0  0
    4.7993   -4.3388   -7.3311 C   0  0  0  0  0
    5.0620   -5.3125   -8.4414 C   0  0  0  0  0
    4.8269   -6.6606   -8.1693 C   0  0  0  0  0
    4.8914   -7.6017   -9.1347 N   0  0  0  0  0
    5.2185   -7.1858  -10.5043 C   0  0  0  0  0
    5.3044   -8.0998  -11.5537 N   0  0  0  0  0
    5.6161   -7.6504  -12.8180 C   0  0  0  0  0
    5.7046   -8.6283  -13.9519 N   0  0  0  0  0
    5.8494   -6.3016  -13.0543 N   0  0  0  0  0
    5.7647   -5.3875  -12.0420 C   0  0  0  0  0
    6.0069   -3.9331  -12.3177 O   0  0  0  0  0
    5.4515   -5.8139  -10.7497 C   0  0  0  0  0
    5.3558   -4.8771   -9.6301 N   0  0  0  0  0
    3.0007    1.4140    0.0000 C   0  0  0  0  0
    2.0265    2.5546    0.0000 O   0  0  0  0  0
    4.4756    1.6873    0.0000 O   0  0  0  0  0
  1  2  1  0  0  0
  2 31  1  0  0  0
  2  8  1  0  0  0
  2  3  1  0  0  0
  3  4  1  0  0  0
  4  5  1  0  0  0
  5  7  1  0  0  0
  5  6  2  0  0  0
  8  9  1  0  0  0
  9 11  1  0  0  0
  9 10  2  0  0  0
 11 16  1  0  0  0
 11 12  2  0  0  0
 12 13  1  0  0  0
 13 14  2  0  0  0
 14 15  1  0  0  0
 14 17  1  0  0  0
 15 16  2  0  0  0
 17 18  1  0  0  0
 18 19  1  0  0  0
 19 20  1  0  0  0
 19 30  2  0  0  0
 20 21  1  0  0  0
 21 22  1  0  0  0
 22 23  1  0  0  0
 22 29  2  0  0  0
 23 24  1  0  0  0
 24 26  2  0  0  0
 24 25  1  0  0  0
 26 27  1  0  0  0
 27 29  1  0  0  0
 27 28  2  0  0  0
 29 30  1  0  0  0
 31 33  1  0  0  0
 31 32  2  0  0  0
M  END
> <SMILES>
[H]C(CCC(=O)O)(NC(=O)C1=CC=C(C=C1)NCC=2CNC=3NC(N)=NC(=O)C=3(N=2))C(=O)O

> <NAME>
DIHYDROFOLATE_2

> <BioCyc_link>
http://biocyc.org/HUMAN/NEW-IMAGE?object=DIHYDROFOLATE

> <BioCyc_name_HTML>
7,8-dihydrofolate

> <CAS>
4033-27-6

> <KEGG_ID>
C00415

> <toxTree.tree.cramer.CramerTreeResult>


> <FORMULA>


> <toxTree.tree.cramer.CramerRules>


$$$$
GUANOSINE_DIPHOSPHATE_FUCOSE_2
 OpenBabel30120812303D

 47 50  0  0  0  0  0  0  0  0999 V2000
    1.0000    0.0000    0.0000 H   0  0  0  0  0
    2.5000    0.0000    0.0000 C   0  0  0  0  0
    2.9688    0.1628    1.4155 C   0  0  0  0  0
    3.0315   -1.3200   -0.5633 O   0  0  0  0  0
    2.6379   -1.4463   -1.9315 C   0  0  0  0  0
    1.1440   -1.3129   -1.9536 H   0  0  0  0  0
    3.0711   -2.7838   -2.4545 O   0  0  0  0  0
    2.6585   -2.9175   -3.8904 P   0  0  0  0  0
    1.1654   -2.8106   -3.9864 O   0  0  0  0  0
    3.2661   -1.8178   -4.7099 O   0  0  0  0  0
    3.0918   -4.2549   -4.4134 O   0  0  0  0  0
    2.6792   -4.3886   -5.8493 P   0  0  0  0  0
    1.1861   -4.2818   -5.9453 O   0  0  0  0  0
    3.2867   -3.2889   -6.6688 O   0  0  0  0  0
    3.1125   -5.7261   -6.3724 O   0  0  0  0  0
    2.6998   -5.8598   -7.8083 C   0  0  0  0  0
    3.1331   -7.1972   -8.3313 C   0  0  0  0  0
    3.3235   -7.0019   -9.8063 H   0  0  0  0  0
    4.3834   -7.6235   -7.5234 O   0  0  0  0  0
    4.4440   -9.1539   -7.7740 C   0  0  0  0  0
    5.2592   -9.8707   -6.7389 H   0  0  0  0  0
    5.0993   -9.4633   -9.0874 N   0  0  0  0  0
    5.2109  -10.6839   -9.6353 C   0  0  0  0  0
    5.8283  -10.5872  -10.8888 N   0  0  0  0  0
    6.1033   -9.3219  -11.1309 C   0  0  0  0  0
    6.7274   -8.5902  -12.2334 C   0  0  0  0  0
    7.2230   -9.2991  -13.4589 O   0  0  0  0  0
    6.8419   -7.2179  -12.0998 N   0  0  0  0  0
    6.3641   -6.5801  -10.9602 C   0  0  0  0  0
    6.4987   -5.0889  -10.8695 N   0  0  0  0  0
    5.8036   -7.2142   -9.9639 N   0  0  0  0  0
    5.6397   -8.5482   -9.9693 C   0  0  0  0  0
    2.9660   -9.5976   -7.7693 C   0  0  0  0  0
    2.5733  -10.1429   -6.4283 H   0  0  0  0  0
    2.7362  -10.6936   -8.7672 O   0  0  0  0  0
    2.1329   -8.3532   -8.1235 C   0  0  0  0  0
    1.1591   -8.0300   -7.0293 H   0  0  0  0  0
    1.3267   -8.5889   -9.3663 O   0  0  0  0  0
    3.1450   -0.4160   -2.7815 C   0  0  0  0  0
    2.6818   -0.6625   -4.1867 H   0  0  0  0  0
    4.6449   -0.4238   -2.7694 O   0  0  0  0  0
    2.6181    0.9406   -2.3079 C   0  0  0  0  0
    1.1216    0.9571   -2.4091 H   0  0  0  0  0
    3.1588    2.0403   -3.1730 O   0  0  0  0  0
    3.0321    1.1590   -0.8492 C   0  0  0  0  0
    2.4525    2.4503   -0.3527 H   0  0  0  0  0
    4.5256    1.2439   -0.7383 O   0  0  0  0  0
  1  2  1  0  0  0
  2 45  1  0  0  0
  2  4  1  0  0  0
  2  3  1  0  0  0
  4  5  1  0  0  0
  5 39  1  0  0  0
  5  7  1  0  0  0
  5  6  1  0  0  0
  7  8  1  0  0  0
  8 11  1  0  0  0
  8 10  1  0  0  0
  8  9  2  0  0  0
 11 12  1  0  0  0
 12 15  1  0  0  0
 12 14  1  0  0  0
 12 13  2  0  0  0
 15 16  1  0  0  0
 16 17  1  0  0  0
 17 36  1  0  0  0
 17 19  1  0  0  0
 17 18  1  0  0  0
 19 20  1  0  0  0
 20 33  1  0  0  0
 20 22  1  0  0  0
 20 21  1  0  0  0
 22 32  1  0  0  0
 22 23  1  0  0  0
 23 24  2  0  0  0
 24 25  1  0  0  0
 25 32  2  0  0  0
 25 26  1  0  0  0
 26 28  1  0  0  0
 26 27  2  0  0  0
 28 29  2  0  0  0
 29 31  1  0  0  0
 29 30  1  0  0  0
 31 32  1  0  0  0
 33 36  1  0  0  0
 33 35  1  0  0  0
 33 34  1  0  0  0
 36 38  1  0  0  0
 36 37  1  0  0  0
 39 42  1  0  0  0
 39 41  1  0  0  0
 39 40  1  0  0  0
 42 45  1  0  0  0
 42 44  1  0  0  0
 42 43  1  0  0  0
 45 47  1  0  0  0
 45 46  1  0  0  0
M  END
> <SMILES>
[H]C4(C)(OC([H])(OP(=O)(O)OP(=O)(O)OCC3([H])(OC([H])(N2C=NC=1C(=O)N=C(N)NC=12)C([H])(O)C3([H])(O)))C([H])(O)C([H])(O)C4([H])(O))

> <NAME>
GUANOSINE_DIPHOSPHATE_FUCOSE_2

> <BioCyc_link>
http://biocyc.org/HUMAN/NEW-IMAGE?object=GUANOSINE_DIPHOSPHATE_FUCOSE

> <BioCyc_name_HTML>
GDP-L-fucose

> <CAS>
15839-70-0

> <KEGG_ID>
C00325

> <toxTree.tree.cramer.CramerTreeResult>


> <FORMULA>


> <toxTree.tree.cramer.CramerRules>


$$$$
PHOSPHORIBOSYL-ATP
 OpenBabel30120812303D

 52 55  0  0  0  0  0  0  0  0999 V2000
    1.0000    0.0000    0.0000 H   0  0  0  0  0
    2.5000    0.0000    0.0000 C   0  0  0  0  0
    2.9034    0.1217   -1.4396 C   0  0  0  0  0
    4.3999    0.1302   -1.5413 O   0  0  0  0  0
    4.8033    0.2519   -2.9809 P   0  0  0  0  0
    4.2639   -0.9208   -3.7449 O   0  0  0  0  0
    4.2352    1.5066   -3.5751 O   0  0  0  0  0
    6.2998    0.2605   -3.0825 O   0  0  0  0  0
    3.0599    1.1537    0.8679 O   0  0  0  0  0
    4.4904    0.6582    1.2094 C   0  0  0  0  0
    5.0630    1.3496    2.4111 H   0  0  0  0  0
    5.4454    0.9430    0.0883 N   0  0  0  0  0
    6.1010   -0.1034   -0.5515 C   0  0  0  0  0
    6.9362    0.0709   -1.5419 N   0  0  0  0  0
    7.2232    1.2912   -2.0265 C   0  0  0  0  0
    6.5788    2.4695   -1.4271 C   0  0  0  0  0
    7.0239    3.5266   -2.0750 N   0  0  0  0  0
    7.9220    3.1056   -3.0639 C   0  0  0  0  0
    8.0395    1.7686   -3.0330 N   0  0  0  0  0
    8.9056    0.9387   -3.9337 C   0  0  0  0  0
    8.5720    1.3915   -5.3243 H   0  0  0  0  0
   10.4139    1.1141   -3.6308 O   0  0  0  0  0
   11.0307   -0.1849   -4.2144 C   0  0  0  0  0
   12.3826   -0.4848   -3.6379 H   0  0  0  0  0
   11.2416   -0.0680   -5.6949 C   0  0  0  0  0
   11.8377   -1.3413   -6.2179 O   0  0  0  0  0
   12.0485   -1.2243   -7.6984 P   0  0  0  0  0
   10.7271   -0.9873   -8.3674 O   0  0  0  0  0
   12.9497   -0.0650   -8.0046 O   0  0  0  0  0
   12.6446   -2.4976   -8.2213 O   0  0  0  0  0
   12.8555   -2.3807   -9.7018 P   0  0  0  0  0
   11.5341   -2.1436  -10.3709 O   0  0  0  0  0
   13.7566   -1.2213  -10.0081 O   0  0  0  0  0
   13.4515   -3.6540  -10.2248 O   0  0  0  0  0
   13.6624   -3.5371  -11.7053 P   0  0  0  0  0
   12.3410   -3.3000  -12.3743 O   0  0  0  0  0
   14.5635   -2.3777  -12.0115 O   0  0  0  0  0
   14.2585   -4.8104  -12.2282 O   0  0  0  0  0
    9.9942   -1.2789   -3.8828 C   0  0  0  0  0
   10.3774   -2.0220   -2.6374 H   0  0  0  0  0
    9.9185   -2.2922   -4.9862 O   0  0  0  0  0
    8.6432   -0.5641   -3.7043 C   0  0  0  0  0
    8.0840   -0.8081   -2.3340 H   0  0  0  0  0
    7.6330   -1.0834   -4.6841 O   0  0  0  0  0
    5.6481    2.2492   -0.3200 C   0  0  0  0  0
    4.9423    3.3933    0.3455 N   0  0  0  0  0
    4.3235   -0.8601    1.4286 C   0  0  0  0  0
    4.1957   -1.1812    2.8882 H   0  0  0  0  0
    5.5233   -1.6057    0.9241 O   0  0  0  0  0
    3.0578   -1.2782    0.6595 C   0  0  0  0  0
    2.0467   -1.8906    1.5829 H   0  0  0  0  0
    3.3824   -2.3132   -0.3765 O   0  0  0  0  0
  1  2  1  0  0  0
  2 50  1  0  0  0
  2  9  1  0  0  0
  2  3  1  0  0  0
  3  4  1  0  0  0
  4  5  1  0  0  0
  5  8  1  0  0  0
  5  7  1  0  0  0
  5  6  2  0  0  0
  9 10  1  0  0  0
 10 47  1  0  0  0
 10 12  1  0  0  0
 10 11  1  0  0  0
 12 13  1  0  0  0
 12 45  1  0  0  0
 13 14  2  0  0  0
 14 15  1  0  0  0
 15 19  1  0  0  0
 15 16  2  0  0  0
 16 17  1  0  0  0
 16 45  1  0  0  0
 17 18  2  0  0  0
 18 19  1  0  0  0
 19 20  1  0  0  0
 20 42  1  0  0  0
 20 22  1  0  0  0
 20 21  1  0  0  0
 22 23  1  0  0  0
 23 39  1  0  0  0
 23 25  1  0  0  0
 23 24  1  0  0  0
 25 26  1  0  0  0
 26 27  1  0  0  0
 27 30  1  0  0  0
 27 29  1  0  0  0
 27 28  2  0  0  0
 30 31  1  0  0  0
 31 34  1  0  0  0
 31 33  1  0  0  0
 31 32  2  0  0  0
 34 35  1  0  0  0
 35 38  1  0  0  0
 35 37  1  0  0  0
 35 36  2  0  0  0
 39 42  1  0  0  0
 39 41  1  0  0  0
 39 40  1  0  0  0
 42 44  1  0  0  0
 42 43  1  0  0  0
 45 46  2  0  0  0
 47 50  1  0  0  0
 47 49  1  0  0  0
 47 48  1  0  0  0
 50 52  1  0  0  0
 50 51  1  0  0  0
M  END
> <SMILES>
[H]C4(COP(=O)(O)O)(OC([H])(N3C=NC1=C(N=CN1C2([H])(OC([H])(COP(=O)(O)OP(=O)(O)OP(=O)(O)O)C([H])(O)C2([H])(O)))C3(=N))C([H])(O)C4([H])(O))

> <NAME>
PHOSPHORIBOSYL-ATP

> <BioCyc_link>
http://biocyc.org/HUMAN/NEW-IMAGE?object=PHOSPHORIBOSYL-ATP

> <BioCyc_name_HTML>
phosphoribosyl-ATP_2

> <CAS>


> <KEGG_ID>
C02739

> <toxTree.tree.cramer.CramerTreeResult>


> <FORMULA>


> <toxTree.tree.cramer.CramerRules>


$$$$
DIHYDRONEOPTERIN-P3_2
 OpenBabel30120812303D

 32 33  0  0  0  0  0  0  0  0999 V2000
    1.0000    0.0000    0.0000 H   0  0  0  0  0
    2.5000    0.0000    0.0000 C   0  0  0  0  0
    2.9931   -0.6977    1.2329 O   0  0  0  0  0
    3.0193   -0.7348   -1.2002 C   0  0  0  0  0
    2.5089   -2.1452   -1.1833 O   0  0  0  0  0
    3.0282   -2.8800   -2.3834 P   0  0  0  0  0
    2.5451   -2.1957   -3.6277 O   0  0  0  0  0
    4.5282   -2.8706   -2.3892 O   0  0  0  0  0
    2.5178   -4.2904   -2.3666 O   0  0  0  0  0
    3.0371   -5.0252   -3.5667 P   0  0  0  0  0
    2.5540   -4.3409   -4.8110 O   0  0  0  0  0
    4.5371   -5.0158   -3.5725 O   0  0  0  0  0
    2.5267   -6.4356   -3.5499 O   0  0  0  0  0
    3.0460   -7.1704   -4.7500 P   0  0  0  0  0
    2.5630   -6.4861   -5.9943 O   0  0  0  0  0
    4.5460   -7.1610   -4.7558 O   0  0  0  0  0
    2.5356   -8.5808   -4.7331 O   0  0  0  0  0
    3.0007    1.4140    0.0000 C   0  0  0  0  0
    2.5076    2.1117   -1.2329 H   0  0  0  0  0
    2.4814    2.1488    1.2002 O   0  0  0  0  0
    4.5007    1.4140    0.0000 C   0  0  0  0  0
    5.1696    1.4135    1.2244 C   0  0  0  0  0
    6.5174    1.4135    1.2973 N   0  0  0  0  0
    7.2911    1.4142    0.0494 C   0  0  0  0  0
    8.6854    1.4153    0.0442 N   0  0  0  0  0
    9.3571    1.4168   -1.1584 C   0  0  0  0  0
   10.8571    1.4125   -1.1703 N   0  0  0  0  0
    8.6608    1.4222   -2.3603 N   0  0  0  0  0
    7.2943    1.4151   -2.3789 C   0  0  0  0  0
    6.5585    1.4079   -3.6860 O   0  0  0  0  0
    6.5864    1.4146   -1.1753 C   0  0  0  0  0
    5.1238    1.4144   -1.1405 N   0  0  0  0  0
  1  2  1  0  0  0
  2 18  1  0  0  0
  2  4  1  0  0  0
  2  3  1  0  0  0
  4  5  1  0  0  0
  5  6  1  0  0  0
  6  9  1  0  0  0
  6  8  1  0  0  0
  6  7  2  0  0  0
  9 10  1  0  0  0
 10 13  1  0  0  0
 10 12  1  0  0  0
 10 11  2  0  0  0
 13 14  1  0  0  0
 14 17  1  0  0  0
 14 16  1  0  0  0
 14 15  2  0  0  0
 18 21  1  0  0  0
 18 20  1  0  0  0
 18 19  1  0  0  0
 21 22  1  0  0  0
 21 32  2  0  0  0
 22 23  1  0  0  0
 23 24  1  0  0  0
 24 25  1  0  0  0
 24 31  2  0  0  0
 25 26  1  0  0  0
 26 28  2  0  0  0
 26 27  1  0  0  0
 28 29  1  0  0  0
 29 31  1  0  0  0
 29 30  2  0  0  0
 31 32  1  0  0  0
M  END
> <SMILES>
[H]C(O)(COP(=O)(O)OP(=O)(O)OP(=O)(O)O)C([H])(O)C=1CNC=2NC(N)=NC(=O)C=2(N=1)

> <NAME>
DIHYDRONEOPTERIN-P3_2

> <BioCyc_link>
http://biocyc.org/HUMAN/NEW-IMAGE?object=DIHYDRONEOPTERIN-P3

> <BioCyc_name_HTML>
7,8-dihydroneopterin

> <CAS>


> <KEGG_ID>
C04895

> <toxTree.tree.cramer.CramerTreeResult>


> <FORMULA>


> <toxTree.tree.cramer.CramerRules>


$$$$
CPD-609_2
 OpenBabel30120812303D

 63 68  0  0  0  0  0  0  0  0999 V2000
    1.0000    0.0000    0.0000 H   0  0  0  0  0
    2.5000    0.0000    0.0000 C   0  0  0  0  0
    2.9034    0.1217   -1.4396 C   0  0  0  0  0
    4.3999    0.1302   -1.5413 O   0  0  0  0  0
    4.8033    0.2519   -2.9809 P   0  0  0  0  0
    4.2639   -0.9208   -3.7449 O   0  0  0  0  0
    4.2352    1.5066   -3.5751 O   0  0  0  0  0
    6.2998    0.2605   -3.0825 O   0  0  0  0  0
    6.7032    0.3821   -4.5222 P   0  0  0  0  0
    6.1638   -0.7906   -5.2862 O   0  0  0  0  0
    6.1351    1.6368   -5.1164 O   0  0  0  0  0
    8.1997    0.3907   -4.6238 O   0  0  0  0  0
    8.6031    0.5124   -6.0634 P   0  0  0  0  0
    8.0637   -0.6604   -6.8274 O   0  0  0  0  0
    8.0350    1.7670   -6.6577 O   0  0  0  0  0
   10.0996    0.5210   -6.1651 O   0  0  0  0  0
   10.5030    0.6426   -7.6047 P   0  0  0  0  0
    9.9636   -0.5301   -8.3687 O   0  0  0  0  0
    9.9349    1.8973   -8.1989 O   0  0  0  0  0
   11.9995    0.6512   -7.7064 O   0  0  0  0  0
   12.4029    0.7729   -9.1460 C   0  0  0  0  0
   13.8994    0.7815   -9.2476 C   0  0  0  0  0
   14.2037    0.9184  -10.7100 H   0  0  0  0  0
   14.5110    1.9304   -8.4088 O   0  0  0  0  0
   15.9639    1.4401   -8.1697 C   0  0  0  0  0
   16.6130    2.1239   -7.0030 H   0  0  0  0  0
   16.8392    1.7404   -9.3501 N   0  0  0  0  0
   17.4943    0.8424  -10.1031 C   0  0  0  0  0
   18.1766    1.4965  -11.1367 N   0  0  0  0  0
   17.9558    2.7915  -11.0391 C   0  0  0  0  0
   18.3733    3.9732  -11.7939 C   0  0  0  0  0
   19.2607    3.8569  -12.9976 O   0  0  0  0  0
   17.9164    5.2022  -11.3524 N   0  0  0  0  0
   17.0842    5.2852  -10.2413 C   0  0  0  0  0
   16.6039    6.6396   -9.8112 N   0  0  0  0  0
   16.6994    4.2429   -9.5527 N   0  0  0  0  0
   17.0799    2.9948   -9.8753 C   0  0  0  0  0
   15.8199   -0.0810   -7.9540 C   0  0  0  0  0
   15.7929   -0.4160   -6.4921 H   0  0  0  0  0
   16.9866   -0.8152   -8.5455 O   0  0  0  0  0
   14.5072   -0.4994   -8.6394 C   0  0  0  0  0
   13.5641   -1.1259   -7.6555 H   0  0  0  0  0
   14.7661   -1.5231   -9.7047 O   0  0  0  0  0
    3.0599    1.1537    0.8679 O   0  0  0  0  0
    4.4904    0.6582    1.2094 C   0  0  0  0  0
    5.0630    1.3496    2.4111 H   0  0  0  0  0
    5.4454    0.9430    0.0883 N   0  0  0  0  0
    6.1375    0.0329   -0.6155 C   0  0  0  0  0
    6.9010    0.6737   -1.5995 N   0  0  0  0  0
    6.6943    1.9723   -1.5194 C   0  0  0  0  0
    7.1824    3.1454   -2.2447 C   0  0  0  0  0
    8.1503    3.0122   -3.3829 O   0  0  0  0  0
    6.7152    4.3825   -1.8381 N   0  0  0  0  0
    5.8084    4.4812   -0.7884 C   0  0  0  0  0
    5.3204    5.8440   -0.3949 N   0  0  0  0  0
    5.3597    3.4468   -0.1271 N   0  0  0  0  0
    5.7422    2.1921   -0.4204 C   0  0  0  0  0
    4.3235   -0.8601    1.4286 C   0  0  0  0  0
    4.1957   -1.1812    2.8882 H   0  0  0  0  0
    5.5233   -1.6057    0.9241 O   0  0  0  0  0
    3.0578   -1.2782    0.6595 C   0  0  0  0  0
    2.0467   -1.8906    1.5829 H   0  0  0  0  0
    3.3824   -2.3132   -0.3765 O   0  0  0  0  0
  1  2  1  0  0  0
  2 61  1  0  0  0
  2 44  1  0  0  0
  2  3  1  0  0  0
  3  4  1  0  0  0
  4  5  1  0  0  0
  5  8  1  0  0  0
  5  7  1  0  0  0
  5  6  2  0  0  0
  8  9  1  0  0  0
  9 12  1  0  0  0
  9 11  1  0  0  0
  9 10  2  0  0  0
 12 13  1  0  0  0
 13 16  1  0  0  0
 13 15  1  0  0  0
 13 14  2  0  0  0
 16 17  1  0  0  0
 17 20  1  0  0  0
 17 19  1  0  0  0
 17 18  2  0  0  0
 20 21  1  0  0  0
 21 22  1  0  0  0
 22 41  1  0  0  0
 22 24  1  0  0  0
 22 23  1  0  0  0
 24 25  1  0  0  0
 25 38  1  0  0  0
 25 27  1  0  0  0
 25 26  1  0  0  0
 27 37  1  0  0  0
 27 28  1  0  0  0
 28 29  2  0  0  0
 29 30  1  0  0  0
 30 37  2  0  0  0
 30 31  1  0  0  0
 31 33  1  0  0  0
 31 32  2  0  0  0
 33 34  2  0  0  0
 34 36  1  0  0  0
 34 35  1  0  0  0
 36 37  1  0  0  0
 38 41  1  0  0  0
 38 40  1  0  0  0
 38 39  1  0  0  0
 41 43  1  0  0  0
 41 42  1  0  0  0
 44 45  1  0  0  0
 45 58  1  0  0  0
 45 47  1  0  0  0
 45 46  1  0  0  0
 47 57  1  0  0  0
 47 48  1  0  0  0
 48 49  2  0  0  0
 49 50  1  0  0  0
 50 57  2  0  0  0
 50 51  1  0  0  0
 51 53  1  0  0  0
 51 52  2  0  0  0
 53 54  2  0  0  0
 54 56  1  0  0  0
 54 55  1  0  0  0
 56 57  1  0  0  0
 58 61  1  0  0  0
 58 60  1  0  0  0
 58 59  1  0  0  0
 61 63  1  0  0  0
 61 62  1  0  0  0
M  END
> <SMILES>
[H]C6(COP(=O)(O)OP(=O)(O)OP(=O)(O)OP(=O)(O)OCC3([H])(OC([H])(N2C=NC=1C(=O)N=C(N)NC=12)C([H])(O)C3([H])(O)))(OC([H])(N5C=NC=4C(=O)N=C(N)NC=45)C([H])(O)C6([H])(O))

> <NAME>
CPD-609_2

> <BioCyc_link>
http://biocyc.org/HUMAN/NEW-IMAGE?object=CPD-609

> <BioCyc_name_HTML>
P1,P4-bis(5'-guanosyl)

> <CAS>


> <KEGG_ID>
C01261

> <toxTree.tree.cramer.CramerTreeResult>


> <FORMULA>


> <toxTree.tree.cramer.CramerRules>


$$$$
GDP-MANNOSE_2
 OpenBabel30120812303D

 48 51  0  0  0  0  0  0  0  0999 V2000
    1.0000    0.0000    0.0000 H   0  0  0  0  0
    2.5000    0.0000    0.0000 C   0  0  0  0  0
    2.9688    0.1628    1.4155 C   0  0  0  0  0
    4.4684    0.1666    1.4490 O   0  0  0  0  0
    3.0315   -1.3200   -0.5633 O   0  0  0  0  0
    2.6379   -1.4463   -1.9315 C   0  0  0  0  0
    1.1440   -1.3129   -1.9536 H   0  0  0  0  0
    3.0711   -2.7838   -2.4545 O   0  0  0  0  0
    2.6585   -2.9175   -3.8904 P   0  0  0  0  0
    1.1654   -2.8106   -3.9864 O   0  0  0  0  0
    3.2661   -1.8178   -4.7099 O   0  0  0  0  0
    3.0918   -4.2549   -4.4134 O   0  0  0  0  0
    2.6792   -4.3886   -5.8493 P   0  0  0  0  0
    1.1861   -4.2818   -5.9453 O   0  0  0  0  0
    3.2867   -3.2889   -6.6688 O   0  0  0  0  0
    3.1125   -5.7261   -6.3724 O   0  0  0  0  0
    2.6998   -5.8598   -7.8083 C   0  0  0  0  0
    3.1331   -7.1972   -8.3313 C   0  0  0  0  0
    3.3235   -7.0019   -9.8063 H   0  0  0  0  0
    4.3834   -7.6235   -7.5234 O   0  0  0  0  0
    4.4440   -9.1539   -7.7740 C   0  0  0  0  0
    5.2592   -9.8707   -6.7389 H   0  0  0  0  0
    5.0993   -9.4633   -9.0874 N   0  0  0  0  0
    5.2109  -10.6839   -9.6353 C   0  0  0  0  0
    5.8283  -10.5872  -10.8888 N   0  0  0  0  0
    6.1033   -9.3219  -11.1309 C   0  0  0  0  0
    6.7274   -8.5902  -12.2334 C   0  0  0  0  0
    7.2230   -9.2991  -13.4589 O   0  0  0  0  0
    6.8419   -7.2179  -12.0998 N   0  0  0  0  0
    6.3641   -6.5801  -10.9602 C   0  0  0  0  0
    6.4987   -5.0889  -10.8695 N   0  0  0  0  0
    5.8036   -7.2142   -9.9639 N   0  0  0  0  0
    5.6397   -8.5482   -9.9693 C   0  0  0  0  0
    2.9660   -9.5976   -7.7693 C   0  0  0  0  0
    2.5733  -10.1429   -6.4283 H   0  0  0  0  0
    2.7362  -10.6936   -8.7672 O   0  0  0  0  0
    2.1329   -8.3532   -8.1235 C   0  0  0  0  0
    1.1591   -8.0300   -7.0293 H   0  0  0  0  0
    1.3267   -8.5889   -9.3663 O   0  0  0  0  0
    3.1450   -0.4160   -2.7815 C   0  0  0  0  0
    2.6818   -0.6625   -4.1867 H   0  0  0  0  0
    4.6449   -0.4238   -2.7694 O   0  0  0  0  0
    2.6181    0.9406   -2.3079 C   0  0  0  0  0
    1.1216    0.9571   -2.4091 H   0  0  0  0  0
    3.1588    2.0403   -3.1730 O   0  0  0  0  0
    3.0321    1.1590   -0.8492 C   0  0  0  0  0
    2.4525    2.4503   -0.3527 H   0  0  0  0  0
    4.5256    1.2439   -0.7383 O   0  0  0  0  0
  1  2  1  0  0  0
  2 46  1  0  0  0
  2  5  1  0  0  0
  2  3  1  0  0  0
  3  4  1  0  0  0
  5  6  1  0  0  0
  6 40  1  0  0  0
  6  8  1  0  0  0
  6  7  1  0  0  0
  8  9  1  0  0  0
  9 12  1  0  0  0
  9 11  1  0  0  0
  9 10  2  0  0  0
 12 13  1  0  0  0
 13 16  1  0  0  0
 13 15  1  0  0  0
 13 14  2  0  0  0
 16 17  1  0  0  0
 17 18  1  0  0  0
 18 37  1  0  0  0
 18 20  1  0  0  0
 18 19  1  0  0  0
 20 21  1  0  0  0
 21 34  1  0  0  0
 21 23  1  0  0  0
 21 22  1  0  0  0
 23 33  1  0  0  0
 23 24  1  0  0  0
 24 25  2  0  0  0
 25 26  1  0  0  0
 26 33  2  0  0  0
 26 27  1  0  0  0
 27 29  1  0  0  0
 27 28  2  0  0  0
 29 30  2  0  0  0
 30 32  1  0  0  0
 30 31  1  0  0  0
 32 33  1  0  0  0
 34 37  1  0  0  0
 34 36  1  0  0  0
 34 35  1  0  0  0
 37 39  1  0  0  0
 37 38  1  0  0  0
 40 43  1  0  0  0
 40 42  1  0  0  0
 40 41  1  0  0  0
 43 46  1  0  0  0
 43 45  1  0  0  0
 43 44  1  0  0  0
 46 48  1  0  0  0
 46 47  1  0  0  0
M  END
> <SMILES>
[H]C4(CO)(OC([H])(OP(=O)(O)OP(=O)(O)OCC3([H])(OC([H])(N2C=NC=1C(=O)N=C(N)NC=12)C([H])(O)C3([H])(O)))C([H])(O)C([H])(O)C4([H])(O))

> <NAME>
GDP-MANNOSE_2

> <BioCyc_link>
http://biocyc.org/HUMAN/NEW-IMAGE?object=GDP-MANNOSE

> <BioCyc_name_HTML>
GDP-&alpha;-D-mannose

> <CAS>


> <KEGG_ID>
C00096

> <toxTree.tree.cramer.CramerTreeResult>


> <FORMULA>


> <toxTree.tree.cramer.CramerRules>


$$$$
CGMP_2
 OpenBabel30120812303D

 27 30  0  0  0  0  0  0  0  0999 V2000
    1.0000    0.0000    0.0000 H   0  0  0  0  0
    2.5000    0.0000    0.0000 C   0  0  0  0  0
    3.0510   -1.3928    0.3142 C   0  0  0  0  0
    4.0846   -1.7171   -0.6180 O   0  0  0  0  0
    5.2022   -0.8277   -0.5821 P   0  0  0  0  0
    6.2225   -1.2758   -1.5862 O   0  0  0  0  0
    5.8365   -0.8450    0.7771 O   0  0  0  0  0
    4.7382    0.5880   -0.9326 O   0  0  0  0  0
    3.6452    1.0166    0.0515 C   0  0  0  0  0
    3.3140    2.2587    0.8245 H   0  0  0  0  0
    4.8686   -0.9114   -0.9273 C   0  0  0  0  0
    5.6195   -1.8415   -1.8335 H   0  0  0  0  0
    5.7770   -2.0855   -1.1426 O   0  0  0  0  0
    3.2823    0.7231    0.0305 C   0  0  0  0  0
    1.9419    1.3798   -0.1186 H   0  0  0  0  0
    4.6963    0.5766   -0.5587 O   0  0  0  0  0
    2.6913    1.0008    1.3809 N   0  0  0  0  0
    2.5903    2.2094    1.9567 C   0  0  0  0  0
    2.0356    2.0811    3.2365 N   0  0  0  0  0
    1.7886    0.8078    3.4670 C   0  0  0  0  0
    1.2284    0.0472    4.5842 C   0  0  0  0  0
    0.7714    0.7278    5.8403 O   0  0  0  0  0
    1.1371   -1.3252    4.4351 N   0  0  0  0  0
    1.5554   -1.9337    3.2566 C   0  0  0  0  0
    1.4222   -3.4231    3.1383 N   0  0  0  0  0
    2.0587   -1.2736    2.2468 N   0  0  0  0  0
    2.2062    0.0621    2.2702 C   0  0  0  0  0
  1  2  1  0  0  0
  2  9  1  0  0  0
  2  3  1  0  0  0
  2 16  1  0  0  0
  3  4  1  0  0  0
  4  5  1  0  0  0
  5  8  1  0  0  0
  5  7  1  0  0  0
  5  6  2  0  0  0
  8  9  1  0  0  0
  9 11  1  0  0  0
  9 10  1  0  0  0
 11 14  1  0  0  0
 11 13  1  0  0  0
 11 12  1  0  0  0
 14 16  1  0  0  0
 14 17  1  0  0  0
 14 15  1  0  0  0
 17 27  1  0  0  0
 17 18  1  0  0  0
 18 19  2  0  0  0
 19 20  1  0  0  0
 20 27  2  0  0  0
 20 21  1  0  0  0
 21 23  1  0  0  0
 21 22  2  0  0  0
 23 24  2  0  0  0
 24 26  1  0  0  0
 24 25  1  0  0  0
 26 27  1  0  0  0
M  END
> <SMILES>
[H]C12(COP(=O)(O)OC1([H])C([H])(O)C([H])(O2)N4C=NC=3C(=O)N=C(N)NC=34)

> <NAME>
CGMP_2

> <BioCyc_link>
http://biocyc.org/HUMAN/NEW-IMAGE?object=CGMP

> <BioCyc_name_HTML>
cyclic-GMP

> <CAS>
7665-99-8

> <KEGG_ID>
C00942

> <toxTree.tree.cramer.CramerTreeResult>


> <FORMULA>


> <toxTree.tree.cramer.CramerRules>


$$$$
GDP-4-DEHYDRO-6-DEOXY-D-MANNOSE_2
 OpenBabel30120812303D

 46 49  0  0  0  0  0  0  0  0999 V2000
    1.0000    0.0000    0.0000 H   0  0  0  0  0
    2.5000    0.0000    0.0000 C   0  0  0  0  0
    2.9688    0.1628    1.4155 C   0  0  0  0  0
    3.0315   -1.3200   -0.5633 O   0  0  0  0  0
    2.6379   -1.4463   -1.9315 C   0  0  0  0  0
    1.1440   -1.3129   -1.9536 H   0  0  0  0  0
    3.0711   -2.7838   -2.4545 O   0  0  0  0  0
    2.6585   -2.9175   -3.8904 P   0  0  0  0  0
    1.1654   -2.8106   -3.9864 O   0  0  0  0  0
    3.2661   -1.8178   -4.7099 O   0  0  0  0  0
    3.0918   -4.2549   -4.4134 O   0  0  0  0  0
    2.6792   -4.3886   -5.8493 P   0  0  0  0  0
    1.1861   -4.2818   -5.9453 O   0  0  0  0  0
    3.2867   -3.2889   -6.6688 O   0  0  0  0  0
    3.1125   -5.7261   -6.3724 O   0  0  0  0  0
    2.6998   -5.8598   -7.8083 C   0  0  0  0  0
    3.1331   -7.1972   -8.3313 C   0  0  0  0  0
    3.3235   -7.0019   -9.8063 H   0  0  0  0  0
    4.3834   -7.6235   -7.5234 O   0  0  0  0  0
    4.4440   -9.1539   -7.7740 C   0  0  0  0  0
    5.2592   -9.8707   -6.7389 H   0  0  0  0  0
    5.0993   -9.4633   -9.0874 N   0  0  0  0  0
    5.2109  -10.6839   -9.6353 C   0  0  0  0  0
    5.8283  -10.5872  -10.8888 N   0  0  0  0  0
    6.1033   -9.3219  -11.1309 C   0  0  0  0  0
    6.7274   -8.5902  -12.2334 C   0  0  0  0  0
    7.2230   -9.2991  -13.4589 O   0  0  0  0  0
    6.8419   -7.2179  -12.0998 N   0  0  0  0  0
    6.3641   -6.5801  -10.9602 C   0  0  0  0  0
    6.4987   -5.0889  -10.8695 N   0  0  0  0  0
    5.8036   -7.2142   -9.9639 N   0  0  0  0  0
    5.6397   -8.5482   -9.9693 C   0  0  0  0  0
    2.9660   -9.5976   -7.7693 C   0  0  0  0  0
    2.5733  -10.1429   -6.4283 H   0  0  0  0  0
    2.7362  -10.6936   -8.7672 O   0  0  0  0  0
    2.1329   -8.3532   -8.1235 C   0  0  0  0  0
    1.1591   -8.0300   -7.0293 H   0  0  0  0  0
    1.3267   -8.5889   -9.3663 O   0  0  0  0  0
    3.1450   -0.4160   -2.7815 C   0  0  0  0  0
    2.6818   -0.6625   -4.1867 H   0  0  0  0  0
    4.6449   -0.4238   -2.7694 O   0  0  0  0  0
    2.6181    0.9406   -2.3079 C   0  0  0  0  0
    1.1216    0.9571   -2.4091 H   0  0  0  0  0
    3.1588    2.0403   -3.1730 O   0  0  0  0  0
    3.0321    1.1590   -0.8492 C   0  0  0  0  0
    3.8299    2.3206   -0.3351 O   0  0  0  0  0
  1  2  1  0  0  0
  2 45  1  0  0  0
  2  4  1  0  0  0
  2  3  1  0  0  0
  4  5  1  0  0  0
  5 39  1  0  0  0
  5  7  1  0  0  0
  5  6  1  0  0  0
  7  8  1  0  0  0
  8 11  1  0  0  0
  8 10  1  0  0  0
  8  9  2  0  0  0
 11 12  1  0  0  0
 12 15  1  0  0  0
 12 14  1  0  0  0
 12 13  2  0  0  0
 15 16  1  0  0  0
 16 17  1  0  0  0
 17 36  1  0  0  0
 17 19  1  0  0  0
 17 18  1  0  0  0
 19 20  1  0  0  0
 20 33  1  0  0  0
 20 22  1  0  0  0
 20 21  1  0  0  0
 22 32  1  0  0  0
 22 23  1  0  0  0
 23 24  2  0  0  0
 24 25  1  0  0  0
 25 32  2  0  0  0
 25 26  1  0  0  0
 26 28  1  0  0  0
 26 27  2  0  0  0
 28 29  2  0  0  0
 29 31  1  0  0  0
 29 30  1  0  0  0
 31 32  1  0  0  0
 33 36  1  0  0  0
 33 35  1  0  0  0
 33 34  1  0  0  0
 36 38  1  0  0  0
 36 37  1  0  0  0
 39 42  1  0  0  0
 39 41  1  0  0  0
 39 40  1  0  0  0
 42 45  1  0  0  0
 42 44  1  0  0  0
 42 43  1  0  0  0
 45 46  2  0  0  0
M  END
> <SMILES>
[H]C4(C)(OC([H])(OP(=O)(O)OP(=O)(O)OCC3([H])(OC([H])(N2C=NC=1C(=O)N=C(N)NC=12)C([H])(O)C3([H])(O)))C([H])(O)C([H])(O)C4(=O))

> <NAME>
GDP-4-DEHYDRO-6-DEOXY-D-MANNOSE_2

> <BioCyc_link>
http://biocyc.org/HUMAN/NEW-IMAGE?object=GDP-4-DEHYDRO-6-DEOXY-D-MANNOSE

> <BioCyc_name_HTML>
GDP-4-dehydro-6-deoxy-D-mannose

> <CAS>


> <KEGG_ID>
C01222

> <toxTree.tree.cramer.CramerTreeResult>


> <FORMULA>


> <toxTree.tree.cramer.CramerRules>


$$$$
IMP_2
 OpenBabel30120812303D

 27 29  0  0  0  0  0  0  0  0999 V2000
    1.0000    0.0000    0.0000 H   0  0  0  0  0
    2.5000    0.0000    0.0000 C   0  0  0  0  0
    2.9034    0.1217   -1.4396 C   0  0  0  0  0
    4.3999    0.1302   -1.5413 O   0  0  0  0  0
    4.8033    0.2519   -2.9809 P   0  0  0  0  0
    4.2639   -0.9208   -3.7449 O   0  0  0  0  0
    4.2352    1.5066   -3.5751 O   0  0  0  0  0
    6.2998    0.2605   -3.0825 O   0  0  0  0  0
    3.0599    1.1537    0.8679 O   0  0  0  0  0
    4.4904    0.6582    1.2094 C   0  0  0  0  0
    5.0630    1.3496    2.4111 H   0  0  0  0  0
    5.4454    0.9430    0.0883 N   0  0  0  0  0
    6.1375    0.0329   -0.6155 C   0  0  0  0  0
    6.9010    0.6737   -1.5995 N   0  0  0  0  0
    6.6943    1.9723   -1.5194 C   0  0  0  0  0
    7.1824    3.1454   -2.2447 C   0  0  0  0  0
    8.1503    3.0122   -3.3829 O   0  0  0  0  0
    6.7152    4.3825   -1.8381 N   0  0  0  0  0
    5.8084    4.4812   -0.7884 C   0  0  0  0  0
    5.3597    3.4468   -0.1271 N   0  0  0  0  0
    5.7422    2.1921   -0.4204 C   0  0  0  0  0
    4.3235   -0.8601    1.4286 C   0  0  0  0  0
    4.1957   -1.1812    2.8882 H   0  0  0  0  0
    5.5233   -1.6057    0.9241 O   0  0  0  0  0
    3.0578   -1.2782    0.6595 C   0  0  0  0  0
    2.0467   -1.8906    1.5829 H   0  0  0  0  0
    3.3824   -2.3132   -0.3765 O   0  0  0  0  0
  1  2  1  0  0  0
  2 25  1  0  0  0
  2  9  1  0  0  0
  2  3  1  0  0  0
  3  4  1  0  0  0
  4  5  1  0  0  0
  5  8  1  0  0  0
  5  7  1  0  0  0
  5  6  2  0  0  0
  9 10  1  0  0  0
 10 22  1  0  0  0
 10 12  1  0  0  0
 10 11  1  0  0  0
 12 21  1  0  0  0
 12 13  1  0  0  0
 13 14  2  0  0  0
 14 15  1  0  0  0
 15 21  2  0  0  0
 15 16  1  0  0  0
 16 18  1  0  0  0
 16 17  2  0  0  0
 18 19  2  0  0  0
 19 20  1  0  0  0
 20 21  1  0  0  0
 22 25  1  0  0  0
 22 24  1  0  0  0
 22 23  1  0  0  0
 25 27  1  0  0  0
 25 26  1  0  0  0
M  END
> <SMILES>
[H]C3(COP(=O)(O)O)(OC([H])(N2C=NC=1C(=O)N=CNC=12)C([H])(O)C3([H])(O))

> <NAME>
IMP_2

> <BioCyc_link>
http://biocyc.org/HUMAN/NEW-IMAGE?object=IMP

> <BioCyc_name_HTML>
inosine-5'-phosphate

> <CAS>
131-99-7

> <KEGG_ID>
C00130

> <toxTree.tree.cramer.CramerTreeResult>


> <FORMULA>


> <toxTree.tree.cramer.CramerRules>


$$$$
5-10-METHENYL-THF_2
 OpenBabel30120812303D

 34 37  0  0  0  0  0  0  0  0999 V2000
    1.0000    0.0000    0.0000 H   0  0  0  0  0
    2.5000    0.0000    0.0000 C   0  0  0  0  0
    2.9931   -0.6977    1.2329 C   0  0  0  0  0
    2.4869    0.0185    2.4498 C   0  0  0  0  0
    2.9800   -0.6792    3.6827 C   0  0  0  0  0
    3.8428   -1.9000    3.5593 O   0  0  0  0  0
    2.6103   -0.1561    5.0391 O   0  0  0  0  0
    3.0193   -0.7348   -1.2002 N   0  0  0  0  0
    2.6508   -2.1726   -1.4167 C   0  0  0  0  0
    1.7630   -2.8756   -0.4330 O   0  0  0  0  0
    3.1701   -2.9074   -2.6168 C   0  0  0  0  0
    2.9289   -4.2637   -2.6817 C   0  0  0  0  0
    3.2603   -4.9749   -3.8367 C   0  0  0  0  0
    3.8289   -4.3050   -4.9213 C   0  0  0  0  0
    4.0593   -2.9475   -4.8456 C   0  0  0  0  0
    3.7285   -2.2483   -3.6977 C   0  0  0  0  0
    4.1884   -5.0602   -6.1665 N   0  0  0  0  0
    4.4507   -6.5292   -6.3035 C   0  0  0  0  0
    4.5540   -6.7892   -7.6093 C   0  0  0  0  0
    4.8118   -8.0700   -8.2868 C   0  0  0  0  0
    3.9646   -8.1141   -9.5674 N   0  0  0  0  0
    4.2529   -6.9062  -10.4225 C   0  0  0  0  0
    4.3244   -7.0062  -11.7910 N   0  0  0  0  0
    4.5424   -5.8686  -12.5615 C   0  0  0  0  0
    4.6163   -5.9853  -14.0551 N   0  0  0  0  0
    4.6930   -4.6194  -11.9569 N   0  0  0  0  0
    4.6335   -4.5069  -10.5796 C   0  0  0  0  0
    4.7959   -3.1687   -9.9218 O   0  0  0  0  0
    4.4215   -5.6476   -9.8091 C   0  0  0  0  0
    4.3665   -5.6138   -8.3416 N   0  0  0  0  0
    4.1496   -4.5518   -7.4874 C   0  0  0  0  0
    3.0007    1.4140    0.0000 C   0  0  0  0  0
    2.0265    2.5546    0.0000 O   0  0  0  0  0
    4.4756    1.6873    0.0000 O   0  0  0  0  0
  1  2  1  0  0  0
  2 32  1  0  0  0
  2  8  1  0  0  0
  2  3  1  0  0  0
  3  4  1  0  0  0
  4  5  1  0  0  0
  5  7  1  0  0  0
  5  6  2  0  0  0
  8  9  1  0  0  0
  9 11  1  0  0  0
  9 10  2  0  0  0
 11 16  1  0  0  0
 11 12  2  0  0  0
 12 13  1  0  0  0
 13 14  2  0  0  0
 14 15  1  0  0  0
 14 17  1  0  0  0
 15 16  2  0  0  0
 17 18  1  0  0  0
 17 31  1  0  0  0
 18 19  1  0  0  0
 19 20  1  0  0  0
 19 30  1  0  0  0
 20 21  1  0  0  0
 21 22  1  0  0  0
 22 23  1  0  0  0
 22 29  2  0  0  0
 23 24  1  0  0  0
 24 26  2  0  0  0
 24 25  1  0  0  0
 26 27  1  0  0  0
 27 29  1  0  0  0
 27 28  2  0  0  0
 29 30  1  0  0  0
 30 31  2  0  0  0
 32 34  1  0  0  0
 32 33  2  0  0  0
M  CHG  1  30   1
M  END
> <SMILES>
[H]C(CCC(=O)O)(NC(=O)C1=CC=C(C=C1)N3CC4CNC=2NC(N)=NC(=O)C=2[N+]4(=C3))C(=O)O

> <NAME>
5-10-METHENYL-THF_2

> <BioCyc_link>
http://biocyc.org/HUMAN/NEW-IMAGE?object=5-10-METHENYL-THF

> <BioCyc_name_HTML>
5,10-methenyltetrahydrofolate

> <CAS>
7444-29-3

> <KEGG_ID>
C00445

> <toxTree.tree.cramer.CramerTreeResult>


> <FORMULA>


> <toxTree.tree.cramer.CramerRules>


$$$$
