
  CDK    9/6/05,0:24

  4  3  0  0  0  0  0  0  0  0999 V2000
    0.0000    0.0000    0.0000 C   0  0  0  0  0  0  0  0  0  0  0  0
    0.0000    0.0000    0.0000 C   0  0  0  0  0  0  0  0  0  0  0  0
    0.0000    0.0000    0.0000 C   0  0  0  0  0  0  0  0  0  0  0  0
    0.0000    0.0000    0.0000 O   0  0  0  0  0  0  0  0  0  0  0  0
  2  1  1  0  0  0  0 
  3  2  1  0  0  0  0 
  4  2  2  0  0  0  0 
M  END
> <Name>
ACETONE

> <toxTree.tree.cramer.CramerTreeResult>
1N,2N,3N,5N,6N,7N,16N,17N,19Y,20Y,21N,18N

> <Formula>
C3H6O

> <CAS>
67-64-1

> <toxTree.tree.cramer.CramerRules>
Low (Class I)

$$$$

  CDK    9/6/05,0:24

 10 11  0  0  0  0  0  0  0  0999 V2000
    0.0000    0.0000    0.0000 N   0  0  0  0  0  0  0  0  0  0  0  0
    0.0000    0.0000    0.0000 C   0  0  0  0  0  0  0  0  0  0  0  0
    0.0000    0.0000    0.0000 C   0  0  0  0  0  0  0  0  0  0  0  0
    0.0000    0.0000    0.0000 N   0  0  0  0  0  0  0  0  0  0  0  0
    0.0000    0.0000    0.0000 C   0  0  0  0  0  0  0  0  0  0  0  0
    0.0000    0.0000    0.0000 N   0  0  0  0  0  0  0  0  0  0  0  0
    0.0000    0.0000    0.0000 C   0  0  0  0  0  0  0  0  0  0  0  0
    0.0000    0.0000    0.0000 N   0  0  0  0  0  0  0  0  0  0  0  0
    0.0000    0.0000    0.0000 C   0  0  0  0  0  0  0  0  0  0  0  0
    0.0000    0.0000    0.0000 N   0  0  0  0  0  0  0  0  0  0  0  0
  2  1  1  0  0  0  0 
  3  2  4  0  0  0  0 
  4  3  4  0  0  0  0 
  5  4  4  0  0  0  0 
  6  5  4  0  0  0  0 
  7  6  4  0  0  0  0 
  7  3  4  0  0  0  0 
  8  7  4  0  0  0  0 
  9  8  4  0  0  0  0 
 10  9  4  0  0  0  0 
 10  2  4  0  0  0  0 
M  END
> <Name>
ADENINE

> <toxTree.tree.cramer.CramerTreeResult>
1N,2N,3N,5N,6N,7Y,8N,10N,11Y,33N

> <Formula>
C5H5N5

> <CAS>
73-24-5

> <toxTree.tree.cramer.CramerRules>
High (Class III)

$$$$

  CDK    9/6/05,0:24

 19 21  0  0  0  0  0  0  0  0999 V2000
    0.0000    0.0000    0.0000 N   0  0  0  0  0  0  0  0  0  0  0  0
    0.0000    0.0000    0.0000 C   0  0  0  0  0  0  0  0  0  0  0  0
    0.0000    0.0000    0.0000 N   0  0  0  0  0  0  0  0  0  0  0  0
    0.0000    0.0000    0.0000 C   0  0  0  0  0  0  0  0  0  0  0  0
    0.0000    0.0000    0.0000 N   0  0  0  0  0  0  0  0  0  0  0  0
    0.0000    0.0000    0.0000 C   0  0  0  0  0  0  0  0  0  0  0  0
    0.0000    0.0000    0.0000 C   0  0  0  0  0  0  0  0  0  0  0  0
    0.0000    0.0000    0.0000 N   0  0  0  0  0  0  0  0  0  0  0  0
    0.0000    0.0000    0.0000 C   0  0  0  0  0  0  0  0  0  0  0  0
    0.0000    0.0000    0.0000 N   0  0  0  0  0  0  0  0  0  0  0  0
    0.0000    0.0000    0.0000 C   0  0  0  0  0  0  0  0  0  0  0  0
    0.0000    0.0000    0.0000 O   0  0  0  0  0  0  0  0  0  0  0  0
    0.0000    0.0000    0.0000 C   0  0  0  0  0  0  0  0  0  0  0  0
    0.0000    0.0000    0.0000 C   0  0  0  0  0  0  0  0  0  0  0  0
    0.0000    0.0000    0.0000 O   0  0  0  0  0  0  0  0  0  0  0  0
    0.0000    0.0000    0.0000 C   0  0  0  0  0  0  0  0  0  0  0  0
    0.0000    0.0000    0.0000 O   0  0  0  0  0  0  0  0  0  0  0  0
    0.0000    0.0000    0.0000 C   0  0  0  0  0  0  0  0  0  0  0  0
    0.0000    0.0000    0.0000 O   0  0  0  0  0  0  0  0  0  0  0  0
  2  1  1  0  0  0  0 
  3  2  4  0  0  0  0 
  4  3  4  0  0  0  0 
  5  4  4  0  0  0  0 
  6  5  4  0  0  0  0 
  7  6  4  0  0  0  0 
  7  2  4  0  0  0  0 
  8  7  4  0  0  0  0 
  9  8  4  0  0  0  0 
 10  9  4  0  0  0  0 
 10  6  4  0  0  0  0 
 11 10  1  0  0  0  0 
 12 11  1  0  0  0  0 
 13 12  1  0  0  0  0 
 14 13  1  0  0  0  0 
 15 14  1  0  0  0  0 
 16 13  1  0  0  0  0 
 17 16  1  0  0  0  0 
 18 16  1  0  0  0  0 
 18 11  1  0  0  0  0 
 19 18  1  0  0  0  0 
M  END
> <Name>
ADENOSINE

> <toxTree.tree.cramer.CramerTreeResult>
1N,2N,3N,5N,6N,7Y,8N,10N,11Y,33N

> <Formula>
C10H13N5O4

> <CAS>
58-61-7

> <toxTree.tree.cramer.CramerRules>
High (Class III)

$$$$

  CDK    9/6/05,0:24

 27 29  0  0  0  0  0  0  0  0999 V2000
    0.0000    0.0000    0.0000 N   0  0  0  0  0  0  0  0  0  0  0  0
    0.0000    0.0000    0.0000 C   0  0  0  0  0  0  0  0  0  0  0  0
    0.0000    0.0000    0.0000 C   0  0  0  0  0  0  0  0  0  0  0  0
    0.0000    0.0000    0.0000 N   0  0  0  0  0  0  0  0  0  0  0  0
    0.0000    0.0000    0.0000 C   0  0  0  0  0  0  0  0  0  0  0  0
    0.0000    0.0000    0.0000 N   0  0  0  0  0  0  0  0  0  0  0  0
    0.0000    0.0000    0.0000 C   0  0  0  0  0  0  0  0  0  0  0  0
    0.0000    0.0000    0.0000 N   0  0  0  0  0  0  0  0  0  0  0  0
    0.0000    0.0000    0.0000 C   0  0  0  0  0  0  0  0  0  0  0  0
    0.0000    0.0000    0.0000 N   0  0  0  0  0  0  0  0  0  0  0  0
    0.0000    0.0000    0.0000 C   0  0  0  0  0  0  0  0  0  0  0  0
    0.0000    0.0000    0.0000 O   0  0  0  0  0  0  0  0  0  0  0  0
    0.0000    0.0000    0.0000 C   0  0  0  0  0  0  0  0  0  0  0  0
    0.0000    0.0000    0.0000 C   0  0  0  0  0  0  0  0  0  0  0  0
    0.0000    0.0000    0.0000 O   0  0  0  0  0  0  0  0  0  0  0  0
    0.0000    0.0000    0.0000 P   0  0  0  0  0  0  0  0  0  0  0  0
    0.0000    0.0000    0.0000 O   0  0  0  0  0  0  0  0  0  0  0  0
    0.0000    0.0000    0.0000 O   0  0  0  0  0  0  0  0  0  0  0  0
    0.0000    0.0000    0.0000 O   0  0  0  0  0  0  0  0  0  0  0  0
    0.0000    0.0000    0.0000 P   0  0  0  0  0  0  0  0  0  0  0  0
    0.0000    0.0000    0.0000 O   0  0  0  0  0  0  0  0  0  0  0  0
    0.0000    0.0000    0.0000 O   0  0  0  0  0  0  0  0  0  0  0  0
    0.0000    0.0000    0.0000 O   0  0  0  0  0  0  0  0  0  0  0  0
    0.0000    0.0000    0.0000 C   0  0  0  0  0  0  0  0  0  0  0  0
    0.0000    0.0000    0.0000 O   0  0  0  0  0  0  0  0  0  0  0  0
    0.0000    0.0000    0.0000 C   0  0  0  0  0  0  0  0  0  0  0  0
    0.0000    0.0000    0.0000 O   0  0  0  0  0  0  0  0  0  0  0  0
  2  1  1  0  0  0  0 
  3  2  4  0  0  0  0 
  4  3  4  0  0  0  0 
  5  4  4  0  0  0  0 
  6  5  4  0  0  0  0 
  7  6  4  0  0  0  0 
  7  3  4  0  0  0  0 
  8  7  4  0  0  0  0 
  9  8  4  0  0  0  0 
 10  9  4  0  0  0  0 
 10  2  4  0  0  0  0 
 11  6  1  0  0  0  0 
 12 11  1  0  0  0  0 
 13 12  1  0  0  0  0 
 14 13  1  0  0  0  0 
 15 14  1  0  0  0  0 
 16 15  1  0  0  0  0 
 17 16  1  0  0  0  0 
 18 16  2  0  0  0  0 
 19 16  1  0  0  0  0 
 20 19  1  0  0  0  0 
 21 20  1  0  0  0  0 
 22 20  1  0  0  0  0 
 23 20  2  0  0  0  0 
 24 13  1  0  0  0  0 
 25 24  1  0  0  0  0 
 26 24  1  0  0  0  0 
 26 11  1  0  0  0  0 
 27 26  1  0  0  0  0 
M  END
> <Name>
ADENOSINE DIPHOSPHATE

> <toxTree.tree.cramer.CramerTreeResult>
1N,2N,3Y,4N

> <Formula>
C10H15N5O10P2

> <CAS>
58-64-0

> <toxTree.tree.cramer.CramerRules>
High (Class III)

$$$$

  CDK    9/6/05,0:24

  6  5  0  0  0  0  0  0  0  0999 V2000
    0.0000    0.0000    0.0000 C   0  0  0  0  0  0  0  0  0  0  0  0
    0.0000    0.0000    0.0000 C   0  0  0  0  0  0  0  0  0  0  0  0
    0.0000    0.0000    0.0000 N   0  0  0  0  0  0  0  0  0  0  0  0
    0.0000    0.0000    0.0000 C   0  0  0  0  0  0  0  0  0  0  0  0
    0.0000    0.0000    0.0000 O   0  0  0  0  0  0  0  0  0  0  0  0
    0.0000    0.0000    0.0000 O   0  0  0  0  0  0  0  0  0  0  0  0
  2  1  1  0  0  0  0 
  3  2  1  0  0  0  0 
  4  2  1  0  0  0  0 
  5  4  1  0  0  0  0 
  6  4  2  0  0  0  0 
M  END
> <Name>
ALANINE

> <toxTree.tree.cramer.CramerTreeResult>
1N,2N,3N,5N,6N,7N,16N,17N,19Y,20Y,21N,18N

> <Formula>
C3H7NO2

> <CAS>
56-41-7

> <toxTree.tree.cramer.CramerRules>
Low (Class I)

$$$$

  CDK    9/6/05,0:24

 12 11  0  0  0  0  0  0  0  0999 V2000
    0.0000    0.0000    0.0000 N   0  0  0  0  0  0  0  0  0  0  0  0
    0.0000    0.0000    0.0000 C   0  0  0  0  0  0  0  0  0  0  0  0
    0.0000    0.0000    0.0000 C   0  0  0  0  0  0  0  0  0  0  0  0
    0.0000    0.0000    0.0000 C   0  0  0  0  0  0  0  0  0  0  0  0
    0.0000    0.0000    0.0000 C   0  0  0  0  0  0  0  0  0  0  0  0
    0.0000    0.0000    0.0000 N   0  0  0  0  0  0  0  0  0  0  0  0
    0.0000    0.0000    0.0000 C   0  0  0  0  0  0  0  0  0  0  0  0
    0.0000    0.0000    0.0000 N   0  0  0  0  0  0  0  0  0  0  0  0
    0.0000    0.0000    0.0000 N   0  0  0  0  0  0  0  0  0  0  0  0
    0.0000    0.0000    0.0000 C   0  0  0  0  0  0  0  0  0  0  0  0
    0.0000    0.0000    0.0000 O   0  0  0  0  0  0  0  0  0  0  0  0
    0.0000    0.0000    0.0000 O   0  0  0  0  0  0  0  0  0  0  0  0
  2  1  1  0  0  0  0 
  3  2  1  0  0  0  0 
  4  3  1  0  0  0  0 
  5  4  1  0  0  0  0 
  6  5  1  0  0  0  0 
  7  6  1  0  0  0  0 
  8  7  1  0  0  0  0 
  9  7  2  0  0  0  0 
 10  2  1  0  0  0  0 
 11 10  1  0  0  0  0 
 12 10  2  0  0  0  0 
M  END
> <Name>
L-ARGININE

> <toxTree.tree.cramer.CramerTreeResult>
1N,2N,3N,5N,6N,7N,16N,17N,19Y,20N,22N,33N

> <Formula>
C6H14N4O2

> <CAS>
74-79-3

> <toxTree.tree.cramer.CramerRules>
High (Class III)

$$$$

  CDK    9/6/05,0:24

  9  8  0  0  0  0  0  0  0  0999 V2000
    0.0000    0.0000    0.0000 N   0  0  0  0  0  0  0  0  0  0  0  0
    0.0000    0.0000    0.0000 C   0  0  0  0  0  0  0  0  0  0  0  0
    0.0000    0.0000    0.0000 C   0  0  0  0  0  0  0  0  0  0  0  0
    0.0000    0.0000    0.0000 C   0  0  0  0  0  0  0  0  0  0  0  0
    0.0000    0.0000    0.0000 N   0  0  0  0  0  0  0  0  0  0  0  0
    0.0000    0.0000    0.0000 O   0  0  0  0  0  0  0  0  0  0  0  0
    0.0000    0.0000    0.0000 C   0  0  0  0  0  0  0  0  0  0  0  0
    0.0000    0.0000    0.0000 O   0  0  0  0  0  0  0  0  0  0  0  0
    0.0000    0.0000    0.0000 O   0  0  0  0  0  0  0  0  0  0  0  0
  2  1  1  0  0  0  0 
  3  2  1  0  0  0  0 
  4  3  1  0  0  0  0 
  5  4  1  0  0  0  0 
  6  4  2  0  0  0  0 
  7  2  1  0  0  0  0 
  8  7  1  0  0  0  0 
  9  7  2  0  0  0  0 
M  END
> <Name>
ASPARAGINE

> <toxTree.tree.cramer.CramerTreeResult>
1N,2N,3N,5N,6N,7N,16N,17N,19Y,20N,22N,33N

> <Formula>
C4H8N2O3

> <CAS>
70-47-3

> <toxTree.tree.cramer.CramerRules>
High (Class III)

$$$$

  CDK    9/6/05,0:24

  9  8  0  0  0  0  0  0  0  0999 V2000
    0.0000    0.0000    0.0000 N   0  0  0  0  0  0  0  0  0  0  0  0
    0.0000    0.0000    0.0000 C   0  0  0  0  0  0  0  0  0  0  0  0
    0.0000    0.0000    0.0000 C   0  0  0  0  0  0  0  0  0  0  0  0
    0.0000    0.0000    0.0000 C   0  0  0  0  0  0  0  0  0  0  0  0
    0.0000    0.0000    0.0000 O   0  0  0  0  0  0  0  0  0  0  0  0
    0.0000    0.0000    0.0000 O   0  0  0  0  0  0  0  0  0  0  0  0
    0.0000    0.0000    0.0000 C   0  0  0  0  0  0  0  0  0  0  0  0
    0.0000    0.0000    0.0000 O   0  0  0  0  0  0  0  0  0  0  0  0
    0.0000    0.0000    0.0000 O   0  0  0  0  0  0  0  0  0  0  0  0
  2  1  1  0  0  0  0 
  3  2  1  0  0  0  0 
  4  3  1  0  0  0  0 
  5  4  1  0  0  0  0 
  6  4  2  0  0  0  0 
  7  2  1  0  0  0  0 
  8  7  1  0  0  0  0 
  9  7  2  0  0  0  0 
M  END
> <Name>
L-ASPARTIC ACID

> <toxTree.tree.cramer.CramerTreeResult>
1N,2N,3N,5N,6N,7N,16N,17N,19Y,20Y,21N,18N

> <Formula>
C4H7NO4

> <CAS>
56-84-8

> <toxTree.tree.cramer.CramerRules>
Low (Class I)

$$$$

  CDK    9/6/05,0:24

 31 33  0  0  0  0  0  0  0  0999 V2000
    0.0000    0.0000    0.0000 N   0  0  0  0  0  0  0  0  0  0  0  0
    0.0000    0.0000    0.0000 C   0  0  0  0  0  0  0  0  0  0  0  0
    0.0000    0.0000    0.0000 C   0  0  0  0  0  0  0  0  0  0  0  0
    0.0000    0.0000    0.0000 N   0  0  0  0  0  0  0  0  0  0  0  0
    0.0000    0.0000    0.0000 C   0  0  0  0  0  0  0  0  0  0  0  0
    0.0000    0.0000    0.0000 N   0  0  0  0  0  0  0  0  0  0  0  0
    0.0000    0.0000    0.0000 C   0  0  0  0  0  0  0  0  0  0  0  0
    0.0000    0.0000    0.0000 N   0  0  0  0  0  0  0  0  0  0  0  0
    0.0000    0.0000    0.0000 C   0  0  0  0  0  0  0  0  0  0  0  0
    0.0000    0.0000    0.0000 N   0  0  0  0  0  0  0  0  0  0  0  0
    0.0000    0.0000    0.0000 C   0  0  0  0  0  0  0  0  0  0  0  0
    0.0000    0.0000    0.0000 O   0  0  0  0  0  0  0  0  0  0  0  0
    0.0000    0.0000    0.0000 C   0  0  0  0  0  0  0  0  0  0  0  0
    0.0000    0.0000    0.0000 C   0  0  0  0  0  0  0  0  0  0  0  0
    0.0000    0.0000    0.0000 O   0  0  0  0  0  0  0  0  0  0  0  0
    0.0000    0.0000    0.0000 P   0  0  0  0  0  0  0  0  0  0  0  0
    0.0000    0.0000    0.0000 O   0  0  0  0  0  0  0  0  0  0  0  0
    0.0000    0.0000    0.0000 O   0  0  0  0  0  0  0  0  0  0  0  0
    0.0000    0.0000    0.0000 O   0  0  0  0  0  0  0  0  0  0  0  0
    0.0000    0.0000    0.0000 P   0  0  0  0  0  0  0  0  0  0  0  0
    0.0000    0.0000    0.0000 O   0  0  0  0  0  0  0  0  0  0  0  0
    0.0000    0.0000    0.0000 O   0  0  0  0  0  0  0  0  0  0  0  0
    0.0000    0.0000    0.0000 O   0  0  0  0  0  0  0  0  0  0  0  0
    0.0000    0.0000    0.0000 P   0  0  0  0  0  0  0  0  0  0  0  0
    0.0000    0.0000    0.0000 O   0  0  0  0  0  0  0  0  0  0  0  0
    0.0000    0.0000    0.0000 O   0  0  0  0  0  0  0  0  0  0  0  0
    0.0000    0.0000    0.0000 O   0  0  0  0  0  0  0  0  0  0  0  0
    0.0000    0.0000    0.0000 C   0  0  0  0  0  0  0  0  0  0  0  0
    0.0000    0.0000    0.0000 O   0  0  0  0  0  0  0  0  0  0  0  0
    0.0000    0.0000    0.0000 C   0  0  0  0  0  0  0  0  0  0  0  0
    0.0000    0.0000    0.0000 O   0  0  0  0  0  0  0  0  0  0  0  0
  2  1  1  0  0  0  0 
  3  2  4  0  0  0  0 
  4  3  4  0  0  0  0 
  5  4  4  0  0  0  0 
  6  5  4  0  0  0  0 
  7  6  4  0  0  0  0 
  7  3  4  0  0  0  0 
  8  7  4  0  0  0  0 
  9  8  4  0  0  0  0 
 10  9  4  0  0  0  0 
 10  2  4  0  0  0  0 
 11  6  1  0  0  0  0 
 12 11  1  0  0  0  0 
 13 12  1  0  0  0  0 
 14 13  1  0  0  0  0 
 15 14  1  0  0  0  0 
 16 15  1  0  0  0  0 
 17 16  1  0  0  0  0 
 18 16  2  0  0  0  0 
 19 16  1  0  0  0  0 
 20 19  1  0  0  0  0 
 21 20  1  0  0  0  0 
 22 20  2  0  0  0  0 
 23 20  1  0  0  0  0 
 24 23  1  0  0  0  0 
 25 24  1  0  0  0  0 
 26 24  1  0  0  0  0 
 27 24  2  0  0  0  0 
 28 13  1  0  0  0  0 
 29 28  1  0  0  0  0 
 30 28  1  0  0  0  0 
 30 11  1  0  0  0  0 
 31 30  1  0  0  0  0 
M  END
> <Name>
ADENOSINE TRIPHOSPHATE

> <toxTree.tree.cramer.CramerTreeResult>
1N,2N,3Y,4N

> <Formula>
C10H16N5O13P3

> <CAS>
56-65-5

> <toxTree.tree.cramer.CramerRules>
High (Class III)

$$$$

  CDK    9/6/05,0:24

 32 35  0  0  0  0  0  0  0  0999 V2000
    0.0000    0.0000    0.0000 H   0  0  0  0  0  0  0  0  0  0  0  0
    0.0000    0.0000    0.0000 C   0  0  0  0  0  0  0  0  0  0  0  0
    0.0000    0.0000    0.0000 C   0  0  0  0  0  0  0  0  0  0  0  0
    0.0000    0.0000    0.0000 C   0  0  0  0  0  0  0  0  0  0  0  0
    0.0000    0.0000    0.0000 C   0  0  0  0  0  0  0  0  0  0  0  0
    0.0000    0.0000    0.0000 H   0  0  0  0  0  0  0  0  0  0  0  0
    0.0000    0.0000    0.0000 C   0  0  0  0  0  0  0  0  0  0  0  0
    0.0000    0.0000    0.0000 C   0  0  0  0  0  0  0  0  0  0  0  0
    0.0000    0.0000    0.0000 C   0  0  0  0  0  0  0  0  0  0  0  0
    0.0000    0.0000    0.0000 C   0  0  0  0  0  0  0  0  0  0  0  0
    0.0000    0.0000    0.0000 C   0  0  0  0  0  0  0  0  0  0  0  0
    0.0000    0.0000    0.0000 H   0  0  0  0  0  0  0  0  0  0  0  0
    0.0000    0.0000    0.0000 C   0  0  0  0  0  0  0  0  0  0  0  0
    0.0000    0.0000    0.0000 C   0  0  0  0  0  0  0  0  0  0  0  0
    0.0000    0.0000    0.0000 C   0  0  0  0  0  0  0  0  0  0  0  0
    0.0000    0.0000    0.0000 C   0  0  0  0  0  0  0  0  0  0  0  0
    0.0000    0.0000    0.0000 C   0  0  0  0  0  0  0  0  0  0  0  0
    0.0000    0.0000    0.0000 O   0  0  0  0  0  0  0  0  0  0  0  0
    0.0000    0.0000    0.0000 C   0  0  0  0  0  0  0  0  0  0  0  0
    0.0000    0.0000    0.0000 C   0  0  0  0  0  0  0  0  0  0  0  0
    0.0000    0.0000    0.0000 C   0  0  0  0  0  0  0  0  0  0  0  0
    0.0000    0.0000    0.0000 C   0  0  0  0  0  0  0  0  0  0  0  0
    0.0000    0.0000    0.0000 C   0  0  0  0  0  0  0  0  0  0  0  0
    0.0000    0.0000    0.0000 H   0  0  0  0  0  0  0  0  0  0  0  0
    0.0000    0.0000    0.0000 C   0  0  0  0  0  0  0  0  0  0  0  0
    0.0000    0.0000    0.0000 C   0  0  0  0  0  0  0  0  0  0  0  0
    0.0000    0.0000    0.0000 C   0  0  0  0  0  0  0  0  0  0  0  0
    0.0000    0.0000    0.0000 C   0  0  0  0  0  0  0  0  0  0  0  0
    0.0000    0.0000    0.0000 C   0  0  0  0  0  0  0  0  0  0  0  0
    0.0000    0.0000    0.0000 C   0  0  0  0  0  0  0  0  0  0  0  0
    0.0000    0.0000    0.0000 C   0  0  0  0  0  0  0  0  0  0  0  0
    0.0000    0.0000    0.0000 C   0  0  0  0  0  0  0  0  0  0  0  0
  2  1  1  0  0  0  0 
  3  2  1  0  0  0  0 
  4  3  1  0  0  0  0 
  5  4  1  0  0  0  0 
  6  5  1  0  0  0  0 
  7  5  1  0  0  0  0 
  7  2  1  0  0  0  0 
  8  7  1  0  0  0  0 
  9  7  1  0  0  0  0 
 10  9  1  0  0  0  0 
 11 10  1  0  0  0  0 
 12 11  1  0  0  0  0 
 13 11  1  0  0  0  0 
 14 13  1  0  0  0  0 
 15 13  1  0  0  0  0 
 16 15  1  0  0  0  0 
 17 16  1  0  0  0  0 
 18 17  1  0  0  0  0 
 19 17  1  0  0  0  0 
 20 19  1  0  0  0  0 
 20 13  1  0  0  0  0 
 21 20  2  0  0  0  0 
 22 21  1  0  0  0  0 
 23 22  1  0  0  0  0 
 23  5  1  0  0  0  0 
 23 11  1  0  0  0  0 
 24 23  1  0  0  0  0 
 25  2  1  0  0  0  0 
 26 25  1  0  0  0  0 
 27 25  1  0  0  0  0 
 28 27  1  0  0  0  0 
 29 28  1  0  0  0  0 
 30 29  1  0  0  0  0 
 31 30  1  0  0  0  0 
 32 30  1  0  0  0  0 
M  END
> <Name>
CHOLESTEROL

> <toxTree.tree.cramer.CramerTreeResult>
1N,2N,3N,5N,6N,7N,16N,17N,19N,23N,24N,25N,26N,22N,33N

> <Formula>
C27H46O

> <CAS>
57-88-5

> <toxTree.tree.cramer.CramerRules>
High (Class III)

$$$$

  CDK    9/6/05,0:24

  7  6  0  0  0  0  0  0  0  0999 V2000
    0.0000    0.0000    0.0000 N   0  0  0  0  0  0  0  0  0  0  0  0
    0.0000    0.0000    0.0000 C   0  0  0  0  0  0  0  0  0  0  0  0
    0.0000    0.0000    0.0000 C   0  0  0  0  0  0  0  0  0  0  0  0
    0.0000    0.0000    0.0000 S   0  0  0  0  0  0  0  0  0  0  0  0
    0.0000    0.0000    0.0000 C   0  0  0  0  0  0  0  0  0  0  0  0
    0.0000    0.0000    0.0000 O   0  0  0  0  0  0  0  0  0  0  0  0
    0.0000    0.0000    0.0000 O   0  0  0  0  0  0  0  0  0  0  0  0
  2  1  1  0  0  0  0 
  3  2  1  0  0  0  0 
  4  3  1  0  0  0  0 
  5  2  1  0  0  0  0 
  6  5  1  0  0  0  0 
  7  5  2  0  0  0  0 
M  END
> <Name>
CYSTEINE

> <toxTree.tree.cramer.CramerTreeResult>
1N,2N,3N,5N,6N,7N,16N,17N,19Y,20Y,21Y

> <Formula>
C3H7NO2S

> <CAS>
52-90-4

> <toxTree.tree.cramer.CramerRules>
High (Class III)

$$$$

  CDK    9/6/05,0:24

 17 18  0  0  0  0  0  0  0  0999 V2000
    0.0000    0.0000    0.0000 N   0  0  0  0  0  0  0  0  0  0  0  0
    0.0000    0.0000    0.0000 C   0  0  0  0  0  0  0  0  0  0  0  0
    0.0000    0.0000    0.0000 N   0  0  0  0  0  0  0  0  0  0  0  0
    0.0000    0.0000    0.0000 C   0  0  0  0  0  0  0  0  0  0  0  0
    0.0000    0.0000    0.0000 O   0  0  0  0  0  0  0  0  0  0  0  0
    0.0000    0.0000    0.0000 N   0  0  0  0  0  0  0  0  0  0  0  0
    0.0000    0.0000    0.0000 C   0  0  0  0  0  0  0  0  0  0  0  0
    0.0000    0.0000    0.0000 C   0  0  0  0  0  0  0  0  0  0  0  0
    0.0000    0.0000    0.0000 C   0  0  0  0  0  0  0  0  0  0  0  0
    0.0000    0.0000    0.0000 O   0  0  0  0  0  0  0  0  0  0  0  0
    0.0000    0.0000    0.0000 C   0  0  0  0  0  0  0  0  0  0  0  0
    0.0000    0.0000    0.0000 C   0  0  0  0  0  0  0  0  0  0  0  0
    0.0000    0.0000    0.0000 O   0  0  0  0  0  0  0  0  0  0  0  0
    0.0000    0.0000    0.0000 C   0  0  0  0  0  0  0  0  0  0  0  0
    0.0000    0.0000    0.0000 O   0  0  0  0  0  0  0  0  0  0  0  0
    0.0000    0.0000    0.0000 C   0  0  0  0  0  0  0  0  0  0  0  0
    0.0000    0.0000    0.0000 O   0  0  0  0  0  0  0  0  0  0  0  0
  2  1  1  0  0  0  0 
  3  2  2  0  0  0  0 
  4  3  1  0  0  0  0 
  5  4  2  0  0  0  0 
  6  4  1  0  0  0  0 
  7  6  1  0  0  0  0 
  8  7  2  0  0  0  0 
  8  2  1  0  0  0  0 
  9  6  1  0  0  0  0 
 10  9  1  0  0  0  0 
 11 10  1  0  0  0  0 
 12 11  1  0  0  0  0 
 13 12  1  0  0  0  0 
 14 11  1  0  0  0  0 
 15 14  1  0  0  0  0 
 16 14  1  0  0  0  0 
 16  9  1  0  0  0  0 
 17 16  1  0  0  0  0 
M  END
> <Name>
CYTIDINE

> <toxTree.tree.cramer.CramerTreeResult>
1N,2N,3N,5N,6N,7Y,8N,10N,11Y,33N

> <Formula>
C9H13N3O5

> <CAS>
65-46-3

> <toxTree.tree.cramer.CramerRules>
High (Class III)

$$$$

  CDK    9/6/05,0:24

  8  8  0  0  0  0  0  0  0  0999 V2000
    0.0000    0.0000    0.0000 N   0  0  0  0  0  0  0  0  0  0  0  0
    0.0000    0.0000    0.0000 C   0  0  0  0  0  0  0  0  0  0  0  0
    0.0000    0.0000    0.0000 N   0  0  0  0  0  0  0  0  0  0  0  0
    0.0000    0.0000    0.0000 C   0  0  0  0  0  0  0  0  0  0  0  0
    0.0000    0.0000    0.0000 O   0  0  0  0  0  0  0  0  0  0  0  0
    0.0000    0.0000    0.0000 N   0  0  0  0  0  0  0  0  0  0  0  0
    0.0000    0.0000    0.0000 C   0  0  0  0  0  0  0  0  0  0  0  0
    0.0000    0.0000    0.0000 C   0  0  0  0  0  0  0  0  0  0  0  0
  2  1  1  0  0  0  0 
  3  2  2  0  0  0  0 
  4  3  1  0  0  0  0 
  5  4  2  0  0  0  0 
  6  4  1  0  0  0  0 
  7  6  1  0  0  0  0 
  8  7  2  0  0  0  0 
  8  2  1  0  0  0  0 
M  END
> <Name>
CYTOSINE

> <toxTree.tree.cramer.CramerTreeResult>
1N,2N,3N,5N,6N,7Y,8N,10N,11Y,33N

> <Formula>
C4H5N3O

> <CAS>
71-30-7

> <toxTree.tree.cramer.CramerRules>
High (Class III)

$$$$

  CDK    9/6/05,0:24

 12 12  0  0  0  0  0  0  0  0999 V2000
    0.0000    0.0000    0.0000 O   0  0  0  0  0  0  0  0  0  0  0  0
    0.0000    0.0000    0.0000 C   0  0  0  0  0  0  0  0  0  0  0  0
    0.0000    0.0000    0.0000 C   0  0  0  0  0  0  0  0  0  0  0  0
    0.0000    0.0000    0.0000 O   0  0  0  0  0  0  0  0  0  0  0  0
    0.0000    0.0000    0.0000 C   0  0  0  0  0  0  0  0  0  0  0  0
    0.0000    0.0000    0.0000 O   0  0  0  0  0  0  0  0  0  0  0  0
    0.0000    0.0000    0.0000 C   0  0  0  0  0  0  0  0  0  0  0  0
    0.0000    0.0000    0.0000 O   0  0  0  0  0  0  0  0  0  0  0  0
    0.0000    0.0000    0.0000 C   0  0  0  0  0  0  0  0  0  0  0  0
    0.0000    0.0000    0.0000 O   0  0  0  0  0  0  0  0  0  0  0  0
    0.0000    0.0000    0.0000 C   0  0  0  0  0  0  0  0  0  0  0  0
    0.0000    0.0000    0.0000 O   0  0  0  0  0  0  0  0  0  0  0  0
  2  1  1  0  0  0  0 
  3  2  1  0  0  0  0 
  4  3  1  0  0  0  0 
  5  4  1  0  0  0  0 
  6  5  1  0  0  0  0 
  7  5  1  0  0  0  0 
  8  7  1  0  0  0  0 
  9  7  1  0  0  0  0 
 10  9  1  0  0  0  0 
 11  9  1  0  0  0  0 
 11  3  1  0  0  0  0 
 12 11  1  0  0  0  0 
M  END
> <Name>
D-GLUCOSE

> <toxTree.tree.cramer.CramerTreeResult>
1N,2N,3N,5Y

> <Formula>
C6H12O6

> <CAS>
50-99-7

> <toxTree.tree.cramer.CramerRules>
Low (Class I)

$$$$

  CDK    9/6/05,0:24

 13 12  0  0  0  0  0  0  0  0999 V2000
    0.0000    0.0000    0.0000 O   0  0  0  0  0  0  0  0  0  0  0  0
    0.0000    0.0000    0.0000 C   0  0  0  0  0  0  0  0  0  0  0  0
    0.0000    0.0000    0.0000 O   0  0  0  0  0  0  0  0  0  0  0  0
    0.0000    0.0000    0.0000 C   0  0  0  0  0  0  0  0  0  0  0  0
    0.0000    0.0000    0.0000 O   0  0  0  0  0  0  0  0  0  0  0  0
    0.0000    0.0000    0.0000 C   0  0  0  0  0  0  0  0  0  0  0  0
    0.0000    0.0000    0.0000 O   0  0  0  0  0  0  0  0  0  0  0  0
    0.0000    0.0000    0.0000 C   0  0  0  0  0  0  0  0  0  0  0  0
    0.0000    0.0000    0.0000 O   0  0  0  0  0  0  0  0  0  0  0  0
    0.0000    0.0000    0.0000 C   0  0  0  0  0  0  0  0  0  0  0  0
    0.0000    0.0000    0.0000 O   0  0  0  0  0  0  0  0  0  0  0  0
    0.0000    0.0000    0.0000 C   0  0  0  0  0  0  0  0  0  0  0  0
    0.0000    0.0000    0.0000 O   0  0  0  0  0  0  0  0  0  0  0  0
  2  1  1  0  0  0  0 
  3  2  2  0  0  0  0 
  4  2  1  0  0  0  0 
  5  4  1  0  0  0  0 
  6  4  1  0  0  0  0 
  7  6  1  0  0  0  0 
  8  6  1  0  0  0  0 
  9  8  1  0  0  0  0 
 10  8  1  0  0  0  0 
 11 10  1  0  0  0  0 
 12 10  1  0  0  0  0 
 13 12  2  0  0  0  0 
M  END
> <Name>
GLUCURONIC ACID

> <toxTree.tree.cramer.CramerTreeResult>
1N,2N,3N,5N,6N,7N,16N,17N,19Y,20Y,21Y

> <Formula>
C6H10O7

> <CAS>
576-37-4

> <toxTree.tree.cramer.CramerRules>
High (Class III)

$$$$

  CDK    9/6/05,0:24

 10  9  0  0  0  0  0  0  0  0999 V2000
    0.0000    0.0000    0.0000 N   0  0  0  0  0  0  0  0  0  0  0  0
    0.0000    0.0000    0.0000 C   0  0  0  0  0  0  0  0  0  0  0  0
    0.0000    0.0000    0.0000 C   0  0  0  0  0  0  0  0  0  0  0  0
    0.0000    0.0000    0.0000 C   0  0  0  0  0  0  0  0  0  0  0  0
    0.0000    0.0000    0.0000 C   0  0  0  0  0  0  0  0  0  0  0  0
    0.0000    0.0000    0.0000 O   0  0  0  0  0  0  0  0  0  0  0  0
    0.0000    0.0000    0.0000 O   0  0  0  0  0  0  0  0  0  0  0  0
    0.0000    0.0000    0.0000 C   0  0  0  0  0  0  0  0  0  0  0  0
    0.0000    0.0000    0.0000 O   0  0  0  0  0  0  0  0  0  0  0  0
    0.0000    0.0000    0.0000 O   0  0  0  0  0  0  0  0  0  0  0  0
  2  1  1  0  0  0  0 
  3  2  1  0  0  0  0 
  4  3  1  0  0  0  0 
  5  4  1  0  0  0  0 
  6  5  1  0  0  0  0 
  7  5  2  0  0  0  0 
  8  2  1  0  0  0  0 
  9  8  1  0  0  0  0 
 10  8  2  0  0  0  0 
M  END
> <Name>
L-GLUTAMIC ACID

> <toxTree.tree.cramer.CramerTreeResult>
1N,2N,3N,5N,6N,7N,16N,17N,19Y,20Y,21N,18N

> <Formula>
C5H9NO4

> <CAS>
56-86-0

> <toxTree.tree.cramer.CramerRules>
Low (Class I)

$$$$

  CDK    9/6/05,0:24

 10  9  0  0  0  0  0  0  0  0999 V2000
    0.0000    0.0000    0.0000 N   0  0  0  0  0  0  0  0  0  0  0  0
    0.0000    0.0000    0.0000 C   0  0  0  0  0  0  0  0  0  0  0  0
    0.0000    0.0000    0.0000 C   0  0  0  0  0  0  0  0  0  0  0  0
    0.0000    0.0000    0.0000 C   0  0  0  0  0  0  0  0  0  0  0  0
    0.0000    0.0000    0.0000 C   0  0  0  0  0  0  0  0  0  0  0  0
    0.0000    0.0000    0.0000 N   0  0  0  0  0  0  0  0  0  0  0  0
    0.0000    0.0000    0.0000 O   0  0  0  0  0  0  0  0  0  0  0  0
    0.0000    0.0000    0.0000 C   0  0  0  0  0  0  0  0  0  0  0  0
    0.0000    0.0000    0.0000 O   0  0  0  0  0  0  0  0  0  0  0  0
    0.0000    0.0000    0.0000 O   0  0  0  0  0  0  0  0  0  0  0  0
  2  1  1  0  0  0  0 
  3  2  1  0  0  0  0 
  4  3  1  0  0  0  0 
  5  4  1  0  0  0  0 
  6  5  1  0  0  0  0 
  7  5  2  0  0  0  0 
  8  2  1  0  0  0  0 
  9  8  1  0  0  0  0 
 10  8  2  0  0  0  0 
M  END
> <Name>
GLUTAMINE

> <toxTree.tree.cramer.CramerTreeResult>
1N,2N,3N,5N,6N,7N,16N,17N,19Y,20N,22N,33N

> <Formula>
C5H10N2O3

> <CAS>
56-85-9

> <toxTree.tree.cramer.CramerRules>
High (Class III)

$$$$

  CDK    9/6/05,0:24

  5  4  0  0  0  0  0  0  0  0999 V2000
    0.0000    0.0000    0.0000 N   0  0  0  0  0  0  0  0  0  0  0  0
    0.0000    0.0000    0.0000 C   0  0  0  0  0  0  0  0  0  0  0  0
    0.0000    0.0000    0.0000 C   0  0  0  0  0  0  0  0  0  0  0  0
    0.0000    0.0000    0.0000 O   0  0  0  0  0  0  0  0  0  0  0  0
    0.0000    0.0000    0.0000 O   0  0  0  0  0  0  0  0  0  0  0  0
  2  1  1  0  0  0  0 
  3  2  1  0  0  0  0 
  4  3  1  0  0  0  0 
  5  3  2  0  0  0  0 
M  END
> <Name>
GLYCINE

> <toxTree.tree.cramer.CramerTreeResult>
1N,2N,3N,5N,6N,7N,16N,17N,19Y,20Y,21N,18N

> <Formula>
C2H5NO2

> <CAS>
56-40-6

> <toxTree.tree.cramer.CramerRules>
Low (Class I)

$$$$

  CDK    9/6/05,0:24

 11 12  0  0  0  0  0  0  0  0999 V2000
    0.0000    0.0000    0.0000 N   0  0  0  0  0  0  0  0  0  0  0  0
    0.0000    0.0000    0.0000 C   0  0  0  0  0  0  0  0  0  0  0  0
    0.0000    0.0000    0.0000 N   0  0  0  0  0  0  0  0  0  0  0  0
    0.0000    0.0000    0.0000 C   0  0  0  0  0  0  0  0  0  0  0  0
    0.0000    0.0000    0.0000 C   0  0  0  0  0  0  0  0  0  0  0  0
    0.0000    0.0000    0.0000 N   0  0  0  0  0  0  0  0  0  0  0  0
    0.0000    0.0000    0.0000 C   0  0  0  0  0  0  0  0  0  0  0  0
    0.0000    0.0000    0.0000 N   0  0  0  0  0  0  0  0  0  0  0  0
    0.0000    0.0000    0.0000 C   0  0  0  0  0  0  0  0  0  0  0  0
    0.0000    0.0000    0.0000 O   0  0  0  0  0  0  0  0  0  0  0  0
    0.0000    0.0000    0.0000 N   0  0  0  0  0  0  0  0  0  0  0  0
  2  1  1  0  0  0  0 
  3  2  2  0  0  0  0 
  4  3  1  0  0  0  0 
  5  4  4  0  0  0  0 
  6  5  4  0  0  0  0 
  7  6  4  0  0  0  0 
  8  7  4  0  0  0  0 
  8  4  4  0  0  0  0 
  9  5  1  0  0  0  0 
 10  9  2  0  0  0  0 
 11  9  1  0  0  0  0 
 11  2  1  0  0  0  0 
M  END
> <Name>
GUANINE

> <toxTree.tree.cramer.CramerTreeResult>
1N,2N,3N,5N,6N,7Y,8N,10N,11Y,33N

> <Formula>
C5H5N5O

> <CAS>
73-40-5

> <toxTree.tree.cramer.CramerRules>
High (Class III)

$$$$

  CDK    9/6/05,0:24

 20 22  0  0  0  0  0  0  0  0999 V2000
    0.0000    0.0000    0.0000 N   0  0  0  0  0  0  0  0  0  0  0  0
    0.0000    0.0000    0.0000 C   0  0  0  0  0  0  0  0  0  0  0  0
    0.0000    0.0000    0.0000 N   0  0  0  0  0  0  0  0  0  0  0  0
    0.0000    0.0000    0.0000 C   0  0  0  0  0  0  0  0  0  0  0  0
    0.0000    0.0000    0.0000 C   0  0  0  0  0  0  0  0  0  0  0  0
    0.0000    0.0000    0.0000 N   0  0  0  0  0  0  0  0  0  0  0  0
    0.0000    0.0000    0.0000 C   0  0  0  0  0  0  0  0  0  0  0  0
    0.0000    0.0000    0.0000 N   0  0  0  0  0  0  0  0  0  0  0  0
    0.0000    0.0000    0.0000 C   0  0  0  0  0  0  0  0  0  0  0  0
    0.0000    0.0000    0.0000 O   0  0  0  0  0  0  0  0  0  0  0  0
    0.0000    0.0000    0.0000 C   0  0  0  0  0  0  0  0  0  0  0  0
    0.0000    0.0000    0.0000 C   0  0  0  0  0  0  0  0  0  0  0  0
    0.0000    0.0000    0.0000 O   0  0  0  0  0  0  0  0  0  0  0  0
    0.0000    0.0000    0.0000 C   0  0  0  0  0  0  0  0  0  0  0  0
    0.0000    0.0000    0.0000 O   0  0  0  0  0  0  0  0  0  0  0  0
    0.0000    0.0000    0.0000 C   0  0  0  0  0  0  0  0  0  0  0  0
    0.0000    0.0000    0.0000 O   0  0  0  0  0  0  0  0  0  0  0  0
    0.0000    0.0000    0.0000 C   0  0  0  0  0  0  0  0  0  0  0  0
    0.0000    0.0000    0.0000 O   0  0  0  0  0  0  0  0  0  0  0  0
    0.0000    0.0000    0.0000 N   0  0  0  0  0  0  0  0  0  0  0  0
  2  1  1  0  0  0  0 
  3  2  2  0  0  0  0 
  4  3  1  0  0  0  0 
  5  4  4  0  0  0  0 
  6  5  4  0  0  0  0 
  7  6  4  0  0  0  0 
  8  7  4  0  0  0  0 
  8  4  4  0  0  0  0 
  9  8  1  0  0  0  0 
 10  9  1  0  0  0  0 
 11 10  1  0  0  0  0 
 12 11  1  0  0  0  0 
 13 12  1  0  0  0  0 
 14 11  1  0  0  0  0 
 15 14  1  0  0  0  0 
 16 14  1  0  0  0  0 
 16  9  1  0  0  0  0 
 17 16  1  0  0  0  0 
 18  5  1  0  0  0  0 
 19 18  2  0  0  0  0 
 20 18  1  0  0  0  0 
 20  2  1  0  0  0  0 
M  END
> <Name>
GUANOSINE

> <toxTree.tree.cramer.CramerTreeResult>
1N,2N,3N,5N,6N,7Y,8N,10N,11Y,33N

> <Formula>
C10H13N5O5

> <CAS>
118-00-3

> <toxTree.tree.cramer.CramerRules>
High (Class III)

$$$$

  CDK    9/6/05,0:24

 11 11  0  0  0  0  0  0  0  0999 V2000
    0.0000    0.0000    0.0000 N   0  0  0  0  0  0  0  0  0  0  0  0
    0.0000    0.0000    0.0000 C   0  0  0  0  0  0  0  0  0  0  0  0
    0.0000    0.0000    0.0000 C   0  0  0  0  0  0  0  0  0  0  0  0
    0.0000    0.0000    0.0000 C   0  0  0  0  0  0  0  0  0  0  0  0
    0.0000    0.0000    0.0000 C   0  0  0  0  0  0  0  0  0  0  0  0
    0.0000    0.0000    0.0000 N   0  0  0  0  0  0  0  0  0  0  0  0
    0.0000    0.0000    0.0000 C   0  0  0  0  0  0  0  0  0  0  0  0
    0.0000    0.0000    0.0000 N   0  0  0  0  0  0  0  0  0  0  0  0
    0.0000    0.0000    0.0000 C   0  0  0  0  0  0  0  0  0  0  0  0
    0.0000    0.0000    0.0000 O   0  0  0  0  0  0  0  0  0  0  0  0
    0.0000    0.0000    0.0000 O   0  0  0  0  0  0  0  0  0  0  0  0
  2  1  1  0  0  0  0 
  3  2  1  0  0  0  0 
  4  3  1  0  0  0  0 
  5  4  4  0  0  0  0 
  6  5  4  0  0  0  0 
  7  6  4  0  0  0  0 
  8  7  4  0  0  0  0 
  8  4  4  0  0  0  0 
  9  2  1  0  0  0  0 
 10  9  1  0  0  0  0 
 11  9  2  0  0  0  0 
M  END
> <Name>
HISTIDINE

> <toxTree.tree.cramer.CramerTreeResult>
1N,2N,3N,5N,6N,7Y,8N,10N,11Y,33N

> <Formula>
C6H9N3O2

> <CAS>
71-00-1

> <toxTree.tree.cramer.CramerRules>
High (Class III)

$$$$

  CDK    9/6/05,0:24

  9  8  0  0  0  0  0  0  0  0999 V2000
    0.0000    0.0000    0.0000 C   0  0  0  0  0  0  0  0  0  0  0  0
    0.0000    0.0000    0.0000 C   0  0  0  0  0  0  0  0  0  0  0  0
    0.0000    0.0000    0.0000 C   0  0  0  0  0  0  0  0  0  0  0  0
    0.0000    0.0000    0.0000 C   0  0  0  0  0  0  0  0  0  0  0  0
    0.0000    0.0000    0.0000 C   0  0  0  0  0  0  0  0  0  0  0  0
    0.0000    0.0000    0.0000 N   0  0  0  0  0  0  0  0  0  0  0  0
    0.0000    0.0000    0.0000 C   0  0  0  0  0  0  0  0  0  0  0  0
    0.0000    0.0000    0.0000 O   0  0  0  0  0  0  0  0  0  0  0  0
    0.0000    0.0000    0.0000 O   0  0  0  0  0  0  0  0  0  0  0  0
  2  1  1  0  0  0  0 
  3  2  1  0  0  0  0 
  4  3  1  0  0  0  0 
  5  3  1  0  0  0  0 
  6  5  1  0  0  0  0 
  7  5  1  0  0  0  0 
  8  7  1  0  0  0  0 
  9  7  2  0  0  0  0 
M  END
> <Name>
ISOLEUCINE

> <toxTree.tree.cramer.CramerTreeResult>
1N,2N,3N,5N,6N,7N,16N,17N,19Y,20Y,21N,18N

> <Formula>
C6H13NO2

> <CAS>
73-32-5

> <toxTree.tree.cramer.CramerRules>
Low (Class I)

$$$$

  CDK    9/6/05,0:24

  9  8  0  0  0  0  0  0  0  0999 V2000
    0.0000    0.0000    0.0000 C   0  0  0  0  0  0  0  0  0  0  0  0
    0.0000    0.0000    0.0000 C   0  0  0  0  0  0  0  0  0  0  0  0
    0.0000    0.0000    0.0000 C   0  0  0  0  0  0  0  0  0  0  0  0
    0.0000    0.0000    0.0000 C   0  0  0  0  0  0  0  0  0  0  0  0
    0.0000    0.0000    0.0000 C   0  0  0  0  0  0  0  0  0  0  0  0
    0.0000    0.0000    0.0000 N   0  0  0  0  0  0  0  0  0  0  0  0
    0.0000    0.0000    0.0000 C   0  0  0  0  0  0  0  0  0  0  0  0
    0.0000    0.0000    0.0000 O   0  0  0  0  0  0  0  0  0  0  0  0
    0.0000    0.0000    0.0000 O   0  0  0  0  0  0  0  0  0  0  0  0
  2  1  1  0  0  0  0 
  3  2  1  0  0  0  0 
  4  2  1  0  0  0  0 
  5  4  1  0  0  0  0 
  6  5  1  0  0  0  0 
  7  5  1  0  0  0  0 
  8  7  1  0  0  0  0 
  9  7  2  0  0  0  0 
M  END
> <Name>
LEUCINE

> <toxTree.tree.cramer.CramerTreeResult>
1N,2N,3N,5N,6N,7N,16N,17N,19Y,20Y,21N,18N

> <Formula>
C6H13NO2

> <CAS>
61-90-5

> <toxTree.tree.cramer.CramerRules>
Low (Class I)

$$$$

  CDK    9/6/05,0:24

 10  9  0  0  0  0  0  0  0  0999 V2000
    0.0000    0.0000    0.0000 N   0  0  0  0  0  0  0  0  0  0  0  0
    0.0000    0.0000    0.0000 C   0  0  0  0  0  0  0  0  0  0  0  0
    0.0000    0.0000    0.0000 C   0  0  0  0  0  0  0  0  0  0  0  0
    0.0000    0.0000    0.0000 C   0  0  0  0  0  0  0  0  0  0  0  0
    0.0000    0.0000    0.0000 C   0  0  0  0  0  0  0  0  0  0  0  0
    0.0000    0.0000    0.0000 C   0  0  0  0  0  0  0  0  0  0  0  0
    0.0000    0.0000    0.0000 N   0  0  0  0  0  0  0  0  0  0  0  0
    0.0000    0.0000    0.0000 C   0  0  0  0  0  0  0  0  0  0  0  0
    0.0000    0.0000    0.0000 O   0  0  0  0  0  0  0  0  0  0  0  0
    0.0000    0.0000    0.0000 O   0  0  0  0  0  0  0  0  0  0  0  0
  2  1  1  0  0  0  0 
  3  2  1  0  0  0  0 
  4  3  1  0  0  0  0 
  5  4  1  0  0  0  0 
  6  5  1  0  0  0  0 
  7  6  1  0  0  0  0 
  8  6  1  0  0  0  0 
  9  8  1  0  0  0  0 
 10  8  2  0  0  0  0 
M  END
> <Name>
LYSINE

> <toxTree.tree.cramer.CramerTreeResult>
1N,2N,3N,5N,6N,7N,16N,17N,19Y,20N,22N,33N

> <Formula>
C6H14N2O2

> <CAS>
56-87-1

> <toxTree.tree.cramer.CramerRules>
High (Class III)

$$$$

  CDK    9/6/05,0:24

  9  8  0  0  0  0  0  0  0  0999 V2000
    0.0000    0.0000    0.0000 C   0  0  0  0  0  0  0  0  0  0  0  0
    0.0000    0.0000    0.0000 S   0  0  0  0  0  0  0  0  0  0  0  0
    0.0000    0.0000    0.0000 C   0  0  0  0  0  0  0  0  0  0  0  0
    0.0000    0.0000    0.0000 C   0  0  0  0  0  0  0  0  0  0  0  0
    0.0000    0.0000    0.0000 C   0  0  0  0  0  0  0  0  0  0  0  0
    0.0000    0.0000    0.0000 N   0  0  0  0  0  0  0  0  0  0  0  0
    0.0000    0.0000    0.0000 C   0  0  0  0  0  0  0  0  0  0  0  0
    0.0000    0.0000    0.0000 O   0  0  0  0  0  0  0  0  0  0  0  0
    0.0000    0.0000    0.0000 O   0  0  0  0  0  0  0  0  0  0  0  0
  2  1  1  0  0  0  0 
  3  2  1  0  0  0  0 
  4  3  1  0  0  0  0 
  5  4  1  0  0  0  0 
  6  5  1  0  0  0  0 
  7  5  1  0  0  0  0 
  8  7  1  0  0  0  0 
  9  7  2  0  0  0  0 
M  END
> <Name>
METHIONINE

> <toxTree.tree.cramer.CramerTreeResult>
1N,2N,3N,5N,6N,7N,16N,17N,19Y,20Y,21Y

> <Formula>
C5H11NO2S

> <CAS>
63-68-3

> <toxTree.tree.cramer.CramerRules>
High (Class III)

$$$$

  CDK    9/6/05,0:24

 12 12  0  0  0  0  0  0  0  0999 V2000
    0.0000    0.0000    0.0000 N   0  0  0  0  0  0  0  0  0  0  0  0
    0.0000    0.0000    0.0000 C   0  0  0  0  0  0  0  0  0  0  0  0
    0.0000    0.0000    0.0000 C   0  0  0  0  0  0  0  0  0  0  0  0
    0.0000    0.0000    0.0000 C   0  0  0  0  0  0  0  0  0  0  0  0
    0.0000    0.0000    0.0000 C   0  0  0  0  0  0  0  0  0  0  0  0
    0.0000    0.0000    0.0000 C   0  0  0  0  0  0  0  0  0  0  0  0
    0.0000    0.0000    0.0000 C   0  0  0  0  0  0  0  0  0  0  0  0
    0.0000    0.0000    0.0000 C   0  0  0  0  0  0  0  0  0  0  0  0
    0.0000    0.0000    0.0000 C   0  0  0  0  0  0  0  0  0  0  0  0
    0.0000    0.0000    0.0000 C   0  0  0  0  0  0  0  0  0  0  0  0
    0.0000    0.0000    0.0000 O   0  0  0  0  0  0  0  0  0  0  0  0
    0.0000    0.0000    0.0000 O   0  0  0  0  0  0  0  0  0  0  0  0
  2  1  1  0  0  0  0 
  3  2  1  0  0  0  0 
  4  3  1  0  0  0  0 
  5  4  4  0  0  0  0 
  6  5  4  0  0  0  0 
  7  6  4  0  0  0  0 
  8  7  4  0  0  0  0 
  9  8  4  0  0  0  0 
  9  4  4  0  0  0  0 
 10  2  1  0  0  0  0 
 11 10  1  0  0  0  0 
 12 10  2  0  0  0  0 
M  END
> <Name>
PHENYLALANINE

> <toxTree.tree.cramer.CramerTreeResult>
1N,2N,3N,5N,6N,7N,16N,17N,19N,23Y,27Y,28N,30Y,31N,32N,22N,33N

> <Formula>
C9H11NO2

> <CAS>
63-91-2

> <toxTree.tree.cramer.CramerRules>
High (Class III)

$$$$

  CDK    9/6/05,0:24

 10  9  0  0  0  0  0  0  0  0999 V2000
    0.0000    0.0000    0.0000 O   0  0  0  0  0  0  0  0  0  0  0  0
    0.0000    0.0000    0.0000 C   0  0  0  0  0  0  0  0  0  0  0  0
    0.0000    0.0000    0.0000 O   0  0  0  0  0  0  0  0  0  0  0  0
    0.0000    0.0000    0.0000 C   0  0  0  0  0  0  0  0  0  0  0  0
    0.0000    0.0000    0.0000 C   0  0  0  0  0  0  0  0  0  0  0  0
    0.0000    0.0000    0.0000 O   0  0  0  0  0  0  0  0  0  0  0  0
    0.0000    0.0000    0.0000 P   0  0  0  0  0  0  0  0  0  0  0  0
    0.0000    0.0000    0.0000 O   0  0  0  0  0  0  0  0  0  0  0  0
    0.0000    0.0000    0.0000 O   0  0  0  0  0  0  0  0  0  0  0  0
    0.0000    0.0000    0.0000 O   0  0  0  0  0  0  0  0  0  0  0  0
  2  1  1  0  0  0  0 
  3  2  2  0  0  0  0 
  4  2  1  0  0  0  0 
  5  4  2  0  0  0  0 
  6  4  1  0  0  0  0 
  7  6  1  0  0  0  0 
  8  7  1  0  0  0  0 
  9  7  1  0  0  0  0 
 10  7  2  0  0  0  0 
M  CHG  1   9  -1
M  END
> <Name>
PHOSPHOENOLPYRUVATE

> <toxTree.tree.cramer.CramerTreeResult>
1N,2N,3Y,4N

> <Formula>
C3H4O6P

> <CAS>
73-89-2

> <toxTree.tree.cramer.CramerRules>
High (Class III)

$$$$

  CDK    9/6/05,0:24

  9  9  0  0  0  0  0  0  0  0999 V2000
    0.0000    0.0000    0.0000 H   0  0  0  0  0  0  0  0  0  0  0  0
    0.0000    0.0000    0.0000 C   0  0  0  0  0  0  0  0  0  0  0  0
    0.0000    0.0000    0.0000 C   0  0  0  0  0  0  0  0  0  0  0  0
    0.0000    0.0000    0.0000 C   0  0  0  0  0  0  0  0  0  0  0  0
    0.0000    0.0000    0.0000 C   0  0  0  0  0  0  0  0  0  0  0  0
    0.0000    0.0000    0.0000 N   0  0  0  0  0  0  0  0  0  0  0  0
    0.0000    0.0000    0.0000 C   0  0  0  0  0  0  0  0  0  0  0  0
    0.0000    0.0000    0.0000 O   0  0  0  0  0  0  0  0  0  0  0  0
    0.0000    0.0000    0.0000 O   0  0  0  0  0  0  0  0  0  0  0  0
  2  1  1  0  0  0  0 
  3  2  1  0  0  0  0 
  4  3  1  0  0  0  0 
  5  4  1  0  0  0  0 
  6  5  1  0  0  0  0 
  6  2  1  0  0  0  0 
  7  2  1  0  0  0  0 
  8  7  1  0  0  0  0 
  9  7  2  0  0  0  0 
M  END
> <Name>
PROLINE

> <toxTree.tree.cramer.CramerTreeResult>
1N,2N,3N,5N,6N,7Y,8N,10N,11N,12N,22N,33N

> <Formula>
C5H9NO2

> <CAS>
147-85-3

> <toxTree.tree.cramer.CramerRules>
High (Class III)

$$$$

  CDK    9/6/05,0:24

  7  6  0  0  0  0  0  0  0  0999 V2000
    0.0000    0.0000    0.0000 N   0  0  0  0  0  0  0  0  0  0  0  0
    0.0000    0.0000    0.0000 C   0  0  0  0  0  0  0  0  0  0  0  0
    0.0000    0.0000    0.0000 C   0  0  0  0  0  0  0  0  0  0  0  0
    0.0000    0.0000    0.0000 O   0  0  0  0  0  0  0  0  0  0  0  0
    0.0000    0.0000    0.0000 C   0  0  0  0  0  0  0  0  0  0  0  0
    0.0000    0.0000    0.0000 O   0  0  0  0  0  0  0  0  0  0  0  0
    0.0000    0.0000    0.0000 O   0  0  0  0  0  0  0  0  0  0  0  0
  2  1  1  0  0  0  0 
  3  2  1  0  0  0  0 
  4  3  1  0  0  0  0 
  5  2  1  0  0  0  0 
  6  5  1  0  0  0  0 
  7  5  2  0  0  0  0 
M  END
> <Name>
SERINE

> <toxTree.tree.cramer.CramerTreeResult>
1N,2N,3N,5N,6N,7N,16N,17N,19Y,20Y,21Y

> <Formula>
C3H7NO3

> <CAS>
56-45-1

> <toxTree.tree.cramer.CramerRules>
High (Class III)

$$$$

  CDK    9/6/05,0:24

  8  7  0  0  0  0  0  0  0  0999 V2000
    0.0000    0.0000    0.0000 C   0  0  0  0  0  0  0  0  0  0  0  0
    0.0000    0.0000    0.0000 C   0  0  0  0  0  0  0  0  0  0  0  0
    0.0000    0.0000    0.0000 O   0  0  0  0  0  0  0  0  0  0  0  0
    0.0000    0.0000    0.0000 C   0  0  0  0  0  0  0  0  0  0  0  0
    0.0000    0.0000    0.0000 N   0  0  0  0  0  0  0  0  0  0  0  0
    0.0000    0.0000    0.0000 C   0  0  0  0  0  0  0  0  0  0  0  0
    0.0000    0.0000    0.0000 O   0  0  0  0  0  0  0  0  0  0  0  0
    0.0000    0.0000    0.0000 O   0  0  0  0  0  0  0  0  0  0  0  0
  2  1  1  0  0  0  0 
  3  2  1  0  0  0  0 
  4  2  1  0  0  0  0 
  5  4  1  0  0  0  0 
  6  4  1  0  0  0  0 
  7  6  1  0  0  0  0 
  8  6  2  0  0  0  0 
M  END
> <Name>
THREONINE

> <toxTree.tree.cramer.CramerTreeResult>
1N,2N,3N,5N,6N,7N,16N,17N,19Y,20Y,21Y

> <Formula>
C4H9NO3

> <CAS>
72-19-5

> <toxTree.tree.cramer.CramerRules>
High (Class III)

$$$$

  CDK    9/6/05,0:24

  9  9  0  0  0  0  0  0  0  0999 V2000
    0.0000    0.0000    0.0000 C   0  0  0  0  0  0  0  0  0  0  0  0
    0.0000    0.0000    0.0000 C   0  0  0  0  0  0  0  0  0  0  0  0
    0.0000    0.0000    0.0000 C   0  0  0  0  0  0  0  0  0  0  0  0
    0.0000    0.0000    0.0000 N   0  0  0  0  0  0  0  0  0  0  0  0
    0.0000    0.0000    0.0000 C   0  0  0  0  0  0  0  0  0  0  0  0
    0.0000    0.0000    0.0000 O   0  0  0  0  0  0  0  0  0  0  0  0
    0.0000    0.0000    0.0000 N   0  0  0  0  0  0  0  0  0  0  0  0
    0.0000    0.0000    0.0000 C   0  0  0  0  0  0  0  0  0  0  0  0
    0.0000    0.0000    0.0000 O   0  0  0  0  0  0  0  0  0  0  0  0
  2  1  1  0  0  0  0 
  3  2  2  0  0  0  0 
  4  3  1  0  0  0  0 
  5  4  1  0  0  0  0 
  6  5  2  0  0  0  0 
  7  5  1  0  0  0  0 
  8  7  1  0  0  0  0 
  8  2  1  0  0  0  0 
  9  8  2  0  0  0  0 
M  END
> <Name>
THYMINE

> <toxTree.tree.cramer.CramerTreeResult>
1N,2N,3N,5N,6N,7Y,8N,10N,11Y,33N

> <Formula>
C5H6N2O2

> <CAS>
65-71-4

> <toxTree.tree.cramer.CramerRules>
High (Class III)

$$$$

  CDK    9/6/05,0:24

 15 16  0  0  0  0  0  0  0  0999 V2000
    0.0000    0.0000    0.0000 N   0  0  0  0  0  0  0  0  0  0  0  0
    0.0000    0.0000    0.0000 C   0  0  0  0  0  0  0  0  0  0  0  0
    0.0000    0.0000    0.0000 C   0  0  0  0  0  0  0  0  0  0  0  0
    0.0000    0.0000    0.0000 C   0  0  0  0  0  0  0  0  0  0  0  0
    0.0000    0.0000    0.0000 C   0  0  0  0  0  0  0  0  0  0  0  0
    0.0000    0.0000    0.0000 N   0  0  0  0  0  0  0  0  0  0  0  0
    0.0000    0.0000    0.0000 C   0  0  0  0  0  0  0  0  0  0  0  0
    0.0000    0.0000    0.0000 C   0  0  0  0  0  0  0  0  0  0  0  0
    0.0000    0.0000    0.0000 C   0  0  0  0  0  0  0  0  0  0  0  0
    0.0000    0.0000    0.0000 C   0  0  0  0  0  0  0  0  0  0  0  0
    0.0000    0.0000    0.0000 C   0  0  0  0  0  0  0  0  0  0  0  0
    0.0000    0.0000    0.0000 C   0  0  0  0  0  0  0  0  0  0  0  0
    0.0000    0.0000    0.0000 C   0  0  0  0  0  0  0  0  0  0  0  0
    0.0000    0.0000    0.0000 O   0  0  0  0  0  0  0  0  0  0  0  0
    0.0000    0.0000    0.0000 O   0  0  0  0  0  0  0  0  0  0  0  0
  2  1  1  0  0  0  0 
  3  2  1  0  0  0  0 
  4  3  1  0  0  0  0 
  5  4  4  0  0  0  0 
  6  5  4  0  0  0  0 
  7  6  4  0  0  0  0 
  8  7  4  0  0  0  0 
  8  4  4  0  0  0  0 
  9  8  4  0  0  0  0 
 10  9  4  0  0  0  0 
 11 10  4  0  0  0  0 
 12 11  4  0  0  0  0 
 12  7  4  0  0  0  0 
 13  2  1  0  0  0  0 
 14 13  1  0  0  0  0 
 15 13  2  0  0  0  0 
M  END
> <Name>
TRYPTOPHAN

> <toxTree.tree.cramer.CramerTreeResult>
1N,2N,3N,5N,6N,7Y,8N,10N,11Y,33N

> <Formula>
C11H12N2O2

> <CAS>
73-22-3

> <toxTree.tree.cramer.CramerRules>
High (Class III)

$$$$

  CDK    9/6/05,0:24

 13 13  0  0  0  0  0  0  0  0999 V2000
    0.0000    0.0000    0.0000 N   0  0  0  0  0  0  0  0  0  0  0  0
    0.0000    0.0000    0.0000 C   0  0  0  0  0  0  0  0  0  0  0  0
    0.0000    0.0000    0.0000 C   0  0  0  0  0  0  0  0  0  0  0  0
    0.0000    0.0000    0.0000 C   0  0  0  0  0  0  0  0  0  0  0  0
    0.0000    0.0000    0.0000 C   0  0  0  0  0  0  0  0  0  0  0  0
    0.0000    0.0000    0.0000 C   0  0  0  0  0  0  0  0  0  0  0  0
    0.0000    0.0000    0.0000 C   0  0  0  0  0  0  0  0  0  0  0  0
    0.0000    0.0000    0.0000 O   0  0  0  0  0  0  0  0  0  0  0  0
    0.0000    0.0000    0.0000 C   0  0  0  0  0  0  0  0  0  0  0  0
    0.0000    0.0000    0.0000 C   0  0  0  0  0  0  0  0  0  0  0  0
    0.0000    0.0000    0.0000 C   0  0  0  0  0  0  0  0  0  0  0  0
    0.0000    0.0000    0.0000 O   0  0  0  0  0  0  0  0  0  0  0  0
    0.0000    0.0000    0.0000 O   0  0  0  0  0  0  0  0  0  0  0  0
  2  1  1  0  0  0  0 
  3  2  1  0  0  0  0 
  4  3  1  0  0  0  0 
  5  4  4  0  0  0  0 
  6  5  4  0  0  0  0 
  7  6  4  0  0  0  0 
  8  7  1  0  0  0  0 
  9  7  4  0  0  0  0 
 10  9  4  0  0  0  0 
 10  4  4  0  0  0  0 
 11  2  1  0  0  0  0 
 12 11  1  0  0  0  0 
 13 11  2  0  0  0  0 
M  END
> <Name>
TYROSINE

> <toxTree.tree.cramer.CramerTreeResult>
1N,2N,3N,5N,6N,7N,16N,17N,19N,23Y,27Y,28N,30Y,31N,32N,22N,33N

> <Formula>
C9H11NO3

> <CAS>
60-18-4

> <toxTree.tree.cramer.CramerRules>
High (Class III)

$$$$

  CDK    9/6/05,0:24

  8  8  0  0  0  0  0  0  0  0999 V2000
    0.0000    0.0000    0.0000 O   0  0  0  0  0  0  0  0  0  0  0  0
    0.0000    0.0000    0.0000 C   0  0  0  0  0  0  0  0  0  0  0  0
    0.0000    0.0000    0.0000 N   0  0  0  0  0  0  0  0  0  0  0  0
    0.0000    0.0000    0.0000 C   0  0  0  0  0  0  0  0  0  0  0  0
    0.0000    0.0000    0.0000 C   0  0  0  0  0  0  0  0  0  0  0  0
    0.0000    0.0000    0.0000 C   0  0  0  0  0  0  0  0  0  0  0  0
    0.0000    0.0000    0.0000 O   0  0  0  0  0  0  0  0  0  0  0  0
    0.0000    0.0000    0.0000 N   0  0  0  0  0  0  0  0  0  0  0  0
  2  1  2  0  0  0  0 
  3  2  1  0  0  0  0 
  4  3  1  0  0  0  0 
  5  4  2  0  0  0  0 
  6  5  1  0  0  0  0 
  7  6  2  0  0  0  0 
  8  6  1  0  0  0  0 
  8  2  1  0  0  0  0 
M  END
> <Name>
URACIL

> <toxTree.tree.cramer.CramerTreeResult>
1N,2N,3N,5N,6N,7Y,8N,10N,11Y,33N

> <Formula>
C4H4N2O2

> <CAS>
66-22-8

> <toxTree.tree.cramer.CramerRules>
High (Class III)

$$$$

  CDK    9/6/05,0:24

 17 18  0  0  0  0  0  0  0  0999 V2000
    0.0000    0.0000    0.0000 O   0  0  0  0  0  0  0  0  0  0  0  0
    0.0000    0.0000    0.0000 C   0  0  0  0  0  0  0  0  0  0  0  0
    0.0000    0.0000    0.0000 C   0  0  0  0  0  0  0  0  0  0  0  0
    0.0000    0.0000    0.0000 O   0  0  0  0  0  0  0  0  0  0  0  0
    0.0000    0.0000    0.0000 C   0  0  0  0  0  0  0  0  0  0  0  0
    0.0000    0.0000    0.0000 N   0  0  0  0  0  0  0  0  0  0  0  0
    0.0000    0.0000    0.0000 C   0  0  0  0  0  0  0  0  0  0  0  0
    0.0000    0.0000    0.0000 C   0  0  0  0  0  0  0  0  0  0  0  0
    0.0000    0.0000    0.0000 C   0  0  0  0  0  0  0  0  0  0  0  0
    0.0000    0.0000    0.0000 O   0  0  0  0  0  0  0  0  0  0  0  0
    0.0000    0.0000    0.0000 N   0  0  0  0  0  0  0  0  0  0  0  0
    0.0000    0.0000    0.0000 C   0  0  0  0  0  0  0  0  0  0  0  0
    0.0000    0.0000    0.0000 O   0  0  0  0  0  0  0  0  0  0  0  0
    0.0000    0.0000    0.0000 C   0  0  0  0  0  0  0  0  0  0  0  0
    0.0000    0.0000    0.0000 O   0  0  0  0  0  0  0  0  0  0  0  0
    0.0000    0.0000    0.0000 C   0  0  0  0  0  0  0  0  0  0  0  0
    0.0000    0.0000    0.0000 O   0  0  0  0  0  0  0  0  0  0  0  0
  2  1  1  0  0  0  0 
  3  2  1  0  0  0  0 
  4  3  1  0  0  0  0 
  5  4  1  0  0  0  0 
  6  5  1  0  0  0  0 
  7  6  1  0  0  0  0 
  8  7  2  0  0  0  0 
  9  8  1  0  0  0  0 
 10  9  2  0  0  0  0 
 11  9  1  0  0  0  0 
 12 11  1  0  0  0  0 
 12  6  1  0  0  0  0 
 13 12  2  0  0  0  0 
 14  5  1  0  0  0  0 
 15 14  1  0  0  0  0 
 16 14  1  0  0  0  0 
 16  3  1  0  0  0  0 
 17 16  1  0  0  0  0 
M  END
> <Name>
URIDINE

> <toxTree.tree.cramer.CramerTreeResult>
1N,2N,3N,5N,6N,7Y,8N,10N,11Y,33N

> <Formula>
C9H12N2O6

> <CAS>
58-96-8

> <toxTree.tree.cramer.CramerRules>
High (Class III)

$$$$

  CDK    9/6/05,0:24

  8  7  0  0  0  0  0  0  0  0999 V2000
    0.0000    0.0000    0.0000 C   0  0  0  0  0  0  0  0  0  0  0  0
    0.0000    0.0000    0.0000 C   0  0  0  0  0  0  0  0  0  0  0  0
    0.0000    0.0000    0.0000 C   0  0  0  0  0  0  0  0  0  0  0  0
    0.0000    0.0000    0.0000 C   0  0  0  0  0  0  0  0  0  0  0  0
    0.0000    0.0000    0.0000 N   0  0  0  0  0  0  0  0  0  0  0  0
    0.0000    0.0000    0.0000 C   0  0  0  0  0  0  0  0  0  0  0  0
    0.0000    0.0000    0.0000 O   0  0  0  0  0  0  0  0  0  0  0  0
    0.0000    0.0000    0.0000 O   0  0  0  0  0  0  0  0  0  0  0  0
  2  1  1  0  0  0  0 
  3  2  1  0  0  0  0 
  4  2  1  0  0  0  0 
  5  4  1  0  0  0  0 
  6  4  1  0  0  0  0 
  7  6  1  0  0  0  0 
  8  6  2  0  0  0  0 
M  END
> <Name>
VALINE

> <toxTree.tree.cramer.CramerTreeResult>
1N,2N,3N,5N,6N,7N,16N,17N,19Y,20Y,21N,18N

> <Formula>
C5H11NO2

> <CAS>
72-18-4

> <toxTree.tree.cramer.CramerRules>
Low (Class I)

$$$$

  CDK    9/6/05,0:24

  3  2  0  0  0  0  0  0  0  0999 V2000
    0.0000    0.0000    0.0000 H   0  0  0  0  0  0  0  0  0  0  0  0
    0.0000    0.0000    0.0000 O   0  0  0  0  0  0  0  0  0  0  0  0
    0.0000    0.0000    0.0000 H   0  0  0  0  0  0  0  0  0  0  0  0
  2  1  1  0  0  0  0 
  3  2  1  0  0  0  0 
M  END
> <Name>
WATER

> <toxTree.tree.cramer.CramerTreeResult>
1N,2N,3N,5Y

> <Formula>
H2O

> <CAS>
7732-18-5

> <toxTree.tree.cramer.CramerRules>
Low (Class I)

$$$$