iss2_7


 11 12  0  0  0  0  0  0  0  0999 V2000
    0.0033   -0.7203    0.0000 C   0  0  0  0  0  0  0  0  0  0  0  0
    0.0000   -1.9814    0.0000 C   0  0  0  0  0  0  0  0  0  0  0  0
    1.1992   -2.6760    0.0000 C   0  0  0  0  0  0  0  0  0  0  0  0
    1.2068   -0.0325    0.0000 C   0  0  0  0  0  0  0  0  0  0  0  0
    2.2928   -0.6721    0.0000 C   0  0  0  0  0  0  0  0  0  0  0  0
    2.2887   -2.0421    0.0000 C   0  0  0  0  0  0  0  0  0  0  0  0
    3.4916   -2.7122    0.0000 C   0  0  0  0  0  0  0  0  0  0  0  0
    4.5740   -2.0616    0.0000 C   0  0  0  0  0  0  0  0  0  0  0  0
    5.7630   -0.0000    0.0000 N   0  0  0  0  0  0  0  0  0  0  0  0
    3.5001   -0.0075    0.0000 C   0  0  0  0  0  0  0  0  0  0  0  0
    4.5809   -0.6617    0.0000 C   0  0  0  0  0  0  0  0  0  0  0  0
  1  2  2  0  0  0  0
  1  4  1  0  0  0  0
  2  3  1  0  0  0  0
  3  6  2  0  0  0  0
  4  5  2  0  0  0  0
  5  6  1  0  0  0  0
  5 10  1  0  0  0  0
  6  7  1  0  0  0  0
  7  8  2  0  0  0  0
  8 11  1  0  0  0  0
  9 11  1  0  0  0  0
 10 11  2  0  0  0  0
M  END
>  <Substance ID> (iss2_7)
iss2_7

>  <FW_iss2> (iss2_7)
143.2

>  <Canc_iss2> (iss2_7)
3.0

>  <ChemName_iss2> (iss2_7)
2-Naphthylamine

>  <SMILES_iss2> (iss2_7)
C12=C(C=CC(=C1)N)C=CC=C2

>  <SAL_iss2> (iss2_7)
3

>  <CAS_iss2> (iss2_7)
91-59-8

>  <Formula_iss2> (iss2_7)
C10H9N

$$$$
iss2_8


 14 15  0  0  0  0  0  0  0  0999 V2000
    2.0007   -2.3046    0.0000 C   0  0  0  0  0  0  0  0  0  0  0  0
    1.3296   -1.1523    0.0000 C   0  0  0  0  0  0  0  0  0  0  0  0
    3.3303   -0.0000    0.0000 C   0  0  0  0  0  0  0  0  0  0  0  0
    3.9888   -1.1523    0.0000 C   0  0  0  0  0  0  0  0  0  0  0  0
    2.0007   -0.0000    0.0000 C   0  0  0  0  0  0  0  0  0  0  0  0
    3.3303   -2.3046    0.0000 C   0  0  0  0  0  0  0  0  0  0  0  0
    0.0000   -1.1523    0.0000 N   0  0  0  0  0  0  0  0  0  0  0  0
    5.3184   -1.1523    0.0000 C   0  0  0  0  0  0  0  0  0  0  0  0
    5.9895   -0.0000    0.0000 C   0  0  0  0  0  0  0  0  0  0  0  0
    7.9776   -1.1523    0.0000 C   0  0  0  0  0  0  0  0  0  0  0  0
    7.3191   -2.3046    0.0000 C   0  0  0  0  0  0  0  0  0  0  0  0
    7.3191   -0.0000    0.0000 C   0  0  0  0  0  0  0  0  0  0  0  0
    5.9895   -2.3046    0.0000 C   0  0  0  0  0  0  0  0  0  0  0  0
    9.3072   -1.1523    0.0000 N   0  0  0  0  0  0  0  0  0  0  0  0
  1  2  2  0  0  0  0
  1  6  1  0  0  0  0
  2  5  1  0  0  0  0
  2  7  1  0  0  0  0
  3  4  1  0  0  0  0
  3  5  2  0  0  0  0
  4  6  2  0  0  0  0
  4  8  1  0  0  0  0
  8  9  2  0  0  0  0
  8 13  1  0  0  0  0
  9 12  1  0  0  0  0
 10 11  1  0  0  0  0
 10 12  2  0  0  0  0
 10 14  1  0  0  0  0
 11 13  2  0  0  0  0
M  END
>  <Substance ID> (iss2_8)
iss2_8

>  <FW_iss2> (iss2_8)
184.2

>  <Canc_iss2> (iss2_8)
3.0

>  <ChemName_iss2> (iss2_8)
Benzidine

>  <SMILES_iss2> (iss2_8)
NC1=CC=C(C2=CC=C(N)C=C2)C=C1

>  <SAL_iss2> (iss2_8)
3

>  <CAS_iss2> (iss2_8)
92-87-5

>  <Formula_iss2> (iss2_8)
C12H12N2

$$$$
iss2_27


  6  6  0  0  0  0  0  0  0  0999 V2000
    2.1549   -1.2676    0.0000 C   0  0  0  0  0  0  0  0  0  0  0  0
    1.0775   -2.0408    0.0000 N   0  0  0  0  0  0  0  0  0  0  0  0
    0.0000   -1.2676    0.0000 N   0  0  0  0  0  0  0  0  0  0  0  0
    0.4056   -0.0000    0.0000 C   0  0  0  0  0  0  0  0  0  0  0  0
    1.7366   -0.0000    0.0000 N   0  0  0  0  0  0  0  0  0  0  0  0
    3.4225   -1.6732    0.0000 N   0  0  0  0  0  0  0  0  0  0  0  0
  1  2  2  0  0  0  0
  1  5  1  0  0  0  0
  1  6  1  0  0  0  0
  2  3  1  0  0  0  0
  3  4  1  0  0  0  0
  4  5  2  0  0  0  0
M  END
>  <Substance ID> (iss2_27)
iss2_27

>  <FW_iss2> (iss2_27)
84.08

>  <Canc_iss2> (iss2_27)
3.0

>  <ChemName_iss2> (iss2_27)
3-Aminotriazole

>  <SMILES_iss2> (iss2_27)
n1c(nnc1)N

>  <SAL_iss2> (iss2_27)
1

>  <CAS_iss2> (iss2_27)
61-82-5

>  <Formula_iss2> (iss2_27)
C2H4N4

$$$$
iss2_28


 17 18  0  0  0  0  0  0  0  0999 V2000
    1.1503   -0.6573    0.0000 C   0  0  0  0  0  0  0  0  0  0  0  0
    2.3006   -0.0000    0.0000 C   0  0  0  0  0  0  0  0  0  0  0  0
    3.4509   -1.9856    0.0000 C   0  0  0  0  0  0  0  0  0  0  0  0
    2.3006   -2.6567    0.0000 C   0  0  0  0  0  0  0  0  0  0  0  0
    3.4509   -0.6573    0.0000 C   0  0  0  0  0  0  0  0  0  0  0  0
    1.1503   -1.9856    0.0000 C   0  0  0  0  0  0  0  0  0  0  0  0
    4.6012   -2.6567    0.0000 C   0  0  0  0  0  0  0  0  0  0  0  0
    0.0000   -2.6567    0.0000 Cl  0  0  0  0  0  0  0  0  0  0  0  0
    0.0000   -0.0000    0.0000 N   0  0  0  0  0  0  0  0  0  0  0  0
    5.7515   -1.9856    0.0000 C   0  0  0  0  0  0  0  0  0  0  0  0
    5.7515   -0.6573    0.0000 C   0  0  0  0  0  0  0  0  0  0  0  0
    8.0658   -0.6573    0.0000 C   0  0  0  0  0  0  0  0  0  0  0  0
    8.0658   -1.9856    0.0000 C   0  0  0  0  0  0  0  0  0  0  0  0
    6.9155   -0.0000    0.0000 C   0  0  0  0  0  0  0  0  0  0  0  0
    6.9155   -2.6567    0.0000 C   0  0  0  0  0  0  0  0  0  0  0  0
    9.2162   -2.6567    0.0000 Cl  0  0  0  0  0  0  0  0  0  0  0  0
    9.2162   -0.0000    0.0000 N   0  0  0  0  0  0  0  0  0  0  0  0
  1  2  2  0  0  0  0
  1  6  1  0  0  0  0
  1  9  1  0  0  0  0
  2  5  1  0  0  0  0
  3  4  1  0  0  0  0
  3  5  2  0  0  0  0
  3  7  1  0  0  0  0
  4  6  2  0  0  0  0
  6  8  1  0  0  0  0
  7 10  1  0  0  0  0
 10 11  2  0  0  0  0
 10 15  1  0  0  0  0
 11 14  1  0  0  0  0
 12 13  1  0  0  0  0
 12 14  2  0  0  0  0
 12 17  1  0  0  0  0
 13 15  2  0  0  0  0
 13 16  1  0  0  0  0
M  END
>  <Substance ID> (iss2_28)
iss2_28

>  <FW_iss2> (iss2_28)
267.2

>  <Canc_iss2> (iss2_28)
3.0

>  <ChemName_iss2> (iss2_28)
4,4'-Methylenebis(2-chloroaniline)

>  <SMILES_iss2> (iss2_28)
ClC1=C(C=CC(=C1)CC2=CC(=C(C=C2)N)Cl)N

>  <SAL_iss2> (iss2_28)
3

>  <CAS_iss2> (iss2_28)
101-14-4

>  <Formula_iss2> (iss2_28)
C13H12Cl2N2

$$$$
iss2_32


  8  8  0  0  0  0  0  0  0  0999 V2000
    0.0000   -2.0061    0.0000 C   0  0  0  0  0  0  0  0  0  0  0  0
    0.0000   -3.2599    0.0000 C   0  0  0  0  0  0  0  0  0  0  0  0
    2.2819   -3.3351    0.0000 C   0  0  0  0  0  0  0  0  0  0  0  0
    2.2819   -1.9434    0.0000 C   0  0  0  0  0  0  0  0  0  0  0  0
    1.1911   -3.9495    0.0000 C   0  0  0  0  0  0  0  0  0  0  0  0
    1.1911   -1.3165    0.0000 C   0  0  0  0  0  0  0  0  0  0  0  0
    1.2037   -0.0000    0.0000 N   0  0  0  0  0  0  0  0  0  0  0  0
    3.5107   -1.2413    0.0000 C   0  0  0  0  0  0  0  0  0  0  0  0
  1  2  2  0  0  0  0
  1  6  1  0  0  0  0
  2  5  1  0  0  0  0
  3  4  1  0  0  0  0
  3  5  2  0  0  0  0
  4  6  2  0  0  0  0
  4  8  1  0  0  0  0
  6  7  1  0  0  0  0
M  END
>  <Substance ID> (iss2_32)
iss2_32

>  <FW_iss2> (iss2_32)
107.2

>  <Canc_iss2> (iss2_32)
3.0

>  <ChemName_iss2> (iss2_32)
ortho-Toluidin Hydrochloride

>  <SMILES_iss2> (iss2_32)
Cc1ccccc1N

>  <SAL_iss2> (iss2_32)
1

>  <CAS_iss2> (iss2_32)
636-21-5

>  <Formula_iss2> (iss2_32)
C7H9N

$$$$
iss2_39


 13 14  0  0  0  0  0  0  0  0999 V2000
    1.9883   -2.3049    0.0000 C   0  0  0  0  0  0  0  0  0  0  0  0
    0.6585   -2.3049    0.0000 C   0  0  0  0  0  0  0  0  0  0  0  0
    0.0000   -1.1524    0.0000 C   0  0  0  0  0  0  0  0  0  0  0  0
    0.6585   -0.0000    0.0000 C   0  0  0  0  0  0  0  0  0  0  0  0
    1.9883   -0.0000    0.0000 C   0  0  0  0  0  0  0  0  0  0  0  0
    2.6595   -1.1524    0.0000 C   0  0  0  0  0  0  0  0  0  0  0  0
    3.9892   -1.1524    0.0000 C   0  0  0  0  0  0  0  0  0  0  0  0
    4.6478   -0.0000    0.0000 C   0  0  0  0  0  0  0  0  0  0  0  0
    5.9775   -0.0000    0.0000 C   0  0  0  0  0  0  0  0  0  0  0  0
    5.9775   -2.3049    0.0000 C   0  0  0  0  0  0  0  0  0  0  0  0
    4.6478   -2.3049    0.0000 C   0  0  0  0  0  0  0  0  0  0  0  0
    6.6487   -1.1524    0.0000 C   0  0  0  0  0  0  0  0  0  0  0  0
    3.9892   -3.4573    0.0000 N   0  0  0  0  0  0  0  0  0  0  0  0
  1  6  2  0  0  0  0
  1  2  1  0  0  0  0
  2  3  2  0  0  0  0
  3  4  1  0  0  0  0
  4  5  2  0  0  0  0
  5  6  1  0  0  0  0
  6  7  1  0  0  0  0
  7  8  1  0  0  0  0
  7 11  2  0  0  0  0
  8  9  2  0  0  0  0
  9 12  1  0  0  0  0
 10 11  1  0  0  0  0
 10 12  2  0  0  0  0
 11 13  1  0  0  0  0
M  END
>  <Substance ID> (iss2_39)
iss2_39

>  <FW_iss2> (iss2_39)
169.2

>  <Canc_iss2> (iss2_39)
3.0

>  <ChemName_iss2> (iss2_39)
2-Biphenylamine Hydrochloride

>  <SMILES_iss2> (iss2_39)
C1(C2=C(C=CC=C2)N)(=CC=CC=C1)

>  <SAL_iss2> (iss2_39)
3

>  <CAS_iss2> (iss2_39)
2185-92-4

>  <Formula_iss2> (iss2_39)
C12H11N

$$$$
iss2_58


  9  9  0  0  0  0  0  0  0  0999 V2000
    1.1516   -0.6707    0.0000 C   0  0  0  0  0  0  0  0  0  0  0  0
    2.3032   -0.0000    0.0000 N   0  0  0  0  0  0  0  0  0  0  0  0
    3.4549   -1.9995    0.0000 N   0  0  0  0  0  0  0  0  0  0  0  0
    2.3032   -2.6576    0.0000 C   0  0  0  0  0  0  0  0  0  0  0  0
    3.4549   -0.6707    0.0000 C   0  0  0  0  0  0  0  0  0  0  0  0
    1.1516   -1.9995    0.0000 N   0  0  0  0  0  0  0  0  0  0  0  0
    0.0000   -0.0000    0.0000 N   0  0  0  0  0  0  0  0  0  0  0  0
    2.3032   -3.9864    0.0000 N   0  0  0  0  0  0  0  0  0  0  0  0
    4.6065   -0.0000    0.0000 N   0  0  0  0  0  0  0  0  0  0  0  0
  1  2  2  0  0  0  0
  1  6  1  0  0  0  0
  1  7  1  0  0  0  0
  2  5  1  0  0  0  0
  3  4  1  0  0  0  0
  3  5  2  0  0  0  0
  4  6  2  0  0  0  0
  4  8  1  0  0  0  0
  5  9  1  0  0  0  0
M  END
>  <Substance ID> (iss2_58)
iss2_58

>  <FW_iss2> (iss2_58)
126.1

>  <Canc_iss2> (iss2_58)
3.0

>  <ChemName_iss2> (iss2_58)
Melamine

>  <SMILES_iss2> (iss2_58)
NC1=NC(=NC(=N1)N)N

>  <SAL_iss2> (iss2_58)
1

>  <CAS_iss2> (iss2_58)
108-78-1

>  <Formula_iss2> (iss2_58)
C3H6N6

$$$$
iss2_59


 15 16  0  0  0  0  0  0  0  0999 V2000
    2.3044   -2.6589    0.0000 C   0  0  0  0  0  0  0  0  0  0  0  0
    1.1522   -1.9878    0.0000 C   0  0  0  0  0  0  0  0  0  0  0  0
    1.1522   -0.6584    0.0000 C   0  0  0  0  0  0  0  0  0  0  0  0
    2.3044   -0.0000    0.0000 C   0  0  0  0  0  0  0  0  0  0  0  0
    3.4565   -0.6584    0.0000 C   0  0  0  0  0  0  0  0  0  0  0  0
    3.4565   -1.9878    0.0000 C   0  0  0  0  0  0  0  0  0  0  0  0
    4.6087   -2.6589    0.0000 C   0  0  0  0  0  0  0  0  0  0  0  0
    5.7609   -1.9878    0.0000 C   0  0  0  0  0  0  0  0  0  0  0  0
    5.7609   -0.6584    0.0000 C   0  0  0  0  0  0  0  0  0  0  0  0
    8.0653   -0.6584    0.0000 C   0  0  0  0  0  0  0  0  0  0  0  0
    8.0653   -1.9878    0.0000 C   0  0  0  0  0  0  0  0  0  0  0  0
    6.9131   -0.0000    0.0000 C   0  0  0  0  0  0  0  0  0  0  0  0
    6.9131   -2.6589    0.0000 C   0  0  0  0  0  0  0  0  0  0  0  0
    9.2174   -0.0000    0.0000 N   0  0  0  0  0  0  0  0  0  0  0  0
    0.0000   -0.0000    0.0000 N   0  0  0  0  0  0  0  0  0  0  0  0
  1  6  2  0  0  0  0
  1  2  1  0  0  0  0
  2  3  2  0  0  0  0
  3  4  1  0  0  0  0
  3 15  1  0  0  0  0
  4  5  2  0  0  0  0
  5  6  1  0  0  0  0
  6  7  1  0  0  0  0
  7  8  1  0  0  0  0
  8  9  2  0  0  0  0
  8 13  1  0  0  0  0
  9 12  1  0  0  0  0
 10 11  1  0  0  0  0
 10 12  2  0  0  0  0
 10 14  1  0  0  0  0
 11 13  2  0  0  0  0
M  END
>  <Substance ID> (iss2_59)
iss2_59

>  <FW_iss2> (iss2_59)
198.3

>  <Canc_iss2> (iss2_59)
3.0

>  <ChemName_iss2> (iss2_59)
4,4'-Methylenedianiline Dihydrochloride

>  <SMILES_iss2> (iss2_59)
C(C1=CC=C(C=C1)N)C2=CC=C(C=C2)N

>  <SAL_iss2> (iss2_59)
3

>  <CAS_iss2> (iss2_59)
13552-44-8

>  <Formula_iss2> (iss2_59)
C13H14N2

$$$$
iss2_61


 15 16  0  0  0  0  0  0  0  0999 V2000
    5.7609   -1.9878    0.0000 C   0  0  0  0  0  0  0  0  0  0  0  0
    5.7609   -0.6584    0.0000 C   0  0  0  0  0  0  0  0  0  0  0  0
    8.0653   -0.6584    0.0000 C   0  0  0  0  0  0  0  0  0  0  0  0
    8.0653   -1.9878    0.0000 C   0  0  0  0  0  0  0  0  0  0  0  0
    6.9131   -0.0000    0.0000 C   0  0  0  0  0  0  0  0  0  0  0  0
    6.9131   -2.6589    0.0000 C   0  0  0  0  0  0  0  0  0  0  0  0
    1.1522   -1.9878    0.0000 C   0  0  0  0  0  0  0  0  0  0  0  0
    1.1522   -0.6584    0.0000 C   0  0  0  0  0  0  0  0  0  0  0  0
    3.4565   -0.6584    0.0000 C   0  0  0  0  0  0  0  0  0  0  0  0
    3.4565   -1.9878    0.0000 C   0  0  0  0  0  0  0  0  0  0  0  0
    2.3044   -0.0000    0.0000 C   0  0  0  0  0  0  0  0  0  0  0  0
    2.3044   -2.6589    0.0000 C   0  0  0  0  0  0  0  0  0  0  0  0
    0.0000   -0.0000    0.0000 N   0  0  0  0  0  0  0  0  0  0  0  0
    4.6087   -2.6589    0.0000 O   0  0  0  0  0  0  0  0  0  0  0  0
    9.2174   -0.0000    0.0000 N   0  0  0  0  0  0  0  0  0  0  0  0
  1  2  2  0  0  0  0
  1  6  1  0  0  0  0
  1 14  1  0  0  0  0
  2  5  1  0  0  0  0
  3  4  1  0  0  0  0
  3  5  2  0  0  0  0
  3 15  1  0  0  0  0
  4  6  2  0  0  0  0
  7  8  2  0  0  0  0
  7 12  1  0  0  0  0
  8 11  1  0  0  0  0
  8 13  1  0  0  0  0
  9 10  1  0  0  0  0
  9 11  2  0  0  0  0
 10 12  2  0  0  0  0
 10 14  1  0  0  0  0
M  END
>  <Substance ID> (iss2_61)
iss2_61

>  <FW_iss2> (iss2_61)
200.2

>  <Canc_iss2> (iss2_61)
3.0

>  <ChemName_iss2> (iss2_61)
4,4'-Oxydianiline 

>  <SMILES_iss2> (iss2_61)
NC1=CC=C(C=C1)OC2=CC=C(C=C2)N

>  <SAL_iss2> (iss2_61)
3

>  <CAS_iss2> (iss2_61)
101-80-4

>  <Formula_iss2> (iss2_61)
C12H12N2O

$$$$
iss2_90


  9  9  0  0  0  0  0  0  0  0999 V2000
    1.1418   -2.1054    0.0000 C   0  0  0  0  0  0  0  0  0  0  0  0
    1.1372   -3.3614    0.0000 C   0  0  0  0  0  0  0  0  0  0  0  0
    3.4253   -3.4299    0.0000 C   0  0  0  0  0  0  0  0  0  0  0  0
    3.4253   -2.0461    0.0000 C   0  0  0  0  0  0  0  0  0  0  0  0
    2.3338   -4.0556    0.0000 C   0  0  0  0  0  0  0  0  0  0  0  0
    2.3384   -1.4158    0.0000 C   0  0  0  0  0  0  0  0  0  0  0  0
    4.5671   -1.3884    0.0000 N   0  0  0  0  0  0  0  0  0  0  0  0
    0.0000   -1.4478    0.0000 N   0  0  0  0  0  0  0  0  0  0  0  0
    2.3384   -0.0000    0.0000 C   0  0  0  0  0  0  0  0  0  0  0  0
  1  2  2  0  0  0  0
  1  6  1  0  0  0  0
  1  8  1  0  0  0  0
  2  5  1  0  0  0  0
  3  4  1  0  0  0  0
  3  5  2  0  0  0  0
  4  6  2  0  0  0  0
  4  7  1  0  0  0  0
  6  9  1  0  0  0  0
M  END
>  <Substance ID> (iss2_90)
iss2_90

>  <FW_iss2> (iss2_90)
122.2

>  <Canc_iss2> (iss2_90)
1.0

>  <ChemName_iss2> (iss2_90)
2,6-Toluenediamine Dihydrochloride

>  <SMILES_iss2> (iss2_90)
Cc1c(N)cccc1N

>  <SAL_iss2> (iss2_90)
3

>  <CAS_iss2> (iss2_90)
15481-70-6

>  <Formula_iss2> (iss2_90)
C7H10N2

$$$$
iss2_95


  9  9  0  0  0  0  0  0  0  0999 V2000
    2.3040   -2.6585    0.0000 C   0  0  0  0  0  0  0  0  0  0  0  0
    2.3040   -3.9877    0.0000 C   0  0  0  0  0  0  0  0  0  0  0  0
    0.0000   -3.9877    0.0000 C   0  0  0  0  0  0  0  0  0  0  0  0
    0.0000   -2.6585    0.0000 C   0  0  0  0  0  0  0  0  0  0  0  0
    1.1520   -4.6586    0.0000 C   0  0  0  0  0  0  0  0  0  0  0  0
    1.1520   -2.0002    0.0000 C   0  0  0  0  0  0  0  0  0  0  0  0
    1.1520   -0.6709    0.0000 O   0  0  0  0  0  0  0  0  0  0  0  0
    1.1520   -5.9879    0.0000 N   0  0  0  0  0  0  0  0  0  0  0  0
    0.0000   -0.0000    0.0000 C   0  0  0  0  0  0  0  0  0  0  0  0
  1  2  2  0  0  0  0
  1  6  1  0  0  0  0
  2  5  1  0  0  0  0
  3  4  1  0  0  0  0
  3  5  2  0  0  0  0
  4  6  2  0  0  0  0
  5  8  1  0  0  0  0
  6  7  1  0  0  0  0
  7  9  1  0  0  0  0
M  END
>  <Substance ID> (iss2_95)
iss2_95

>  <FW_iss2> (iss2_95)
123.2

>  <Canc_iss2> (iss2_95)
2.0

>  <ChemName_iss2> (iss2_95)
p-Anisidine Hydrochloride

>  <SMILES_iss2> (iss2_95)
OCc1ccc(N)cc1.Cl

>  <SAL_iss2> (iss2_95)
3

>  <CAS_iss2> (iss2_95)
20265-97-8

>  <Formula_iss2> (iss2_95)
C7H9NO

$$$$
iss2_102


  9  9  0  0  0  0  0  0  0  0999 V2000
    2.7232   -4.7547    0.0000 Cl  0  0  0  0  0  0  0  0  0  0  0  0
    1.9171   -3.3688    0.0000 C   0  0  0  0  0  0  0  0  0  0  0  0
    2.5922   -2.1920    0.0000 C   0  0  0  0  0  0  0  0  0  0  0  0
    1.9717   -1.1238    0.0000 C   0  0  0  0  0  0  0  0  0  0  0  0
    2.6155   -0.0000    0.0000 N   0  0  0  0  0  0  0  0  0  0  0  0
    0.6148   -1.1274    0.0000 C   0  0  0  0  0  0  0  0  0  0  0  0
    0.0000   -2.1992    0.0000 C   0  0  0  0  0  0  0  0  0  0  0  0
    0.6824   -3.3727    0.0000 C   0  0  0  0  0  0  0  0  0  0  0  0
    0.0388   -4.4961    0.0000 N   0  0  0  0  0  0  0  0  0  0  0  0
  1  2  1  0  0  0  0
  2  3  1  0  0  0  0
  2  8  2  0  0  0  0
  3  4  2  0  0  0  0
  4  5  1  0  0  0  0
  4  6  1  0  0  0  0
  6  7  2  0  0  0  0
  7  8  1  0  0  0  0
  8  9  1  0  0  0  0
M  END
>  <Substance ID> (iss2_102)
iss2_102

>  <FW_iss2> (iss2_102)
142.6

>  <Canc_iss2> (iss2_102)
1.0

>  <ChemName_iss2> (iss2_102)
2-Chloro-1,4-Benzenediamine Sulfate (1:1)

>  <SMILES_iss2> (iss2_102)
Clc1cc(N)ccc1N.S(=O)(=O)(O)(O)

>  <SAL_iss2> (iss2_102)
3

>  <CAS_iss2> (iss2_102)
61702-44-1

>  <Formula_iss2> (iss2_102)
C6H7ClN2

$$$$
iss2_110


 11 11  0  0  0  0  0  0  0  0999 V2000
    4.6120   -1.9892    0.0000 C   0  0  0  0  0  0  0  0  0  0  0  0
    4.6120   -3.3196    0.0000 C   0  0  0  0  0  0  0  0  0  0  0  0
    2.3060   -3.3196    0.0000 C   0  0  0  0  0  0  0  0  0  0  0  0
    2.3060   -1.9892    0.0000 C   0  0  0  0  0  0  0  0  0  0  0  0
    3.4590   -3.9912    0.0000 C   0  0  0  0  0  0  0  0  0  0  0  0
    3.4590   -1.3304    0.0000 C   0  0  0  0  0  0  0  0  0  0  0  0
    1.1530   -1.3304    0.0000 O   0  0  0  0  0  0  0  0  0  0  0  0
    0.0000   -1.9892    0.0000 C   0  0  0  0  0  0  0  0  0  0  0  0
    3.4590   -5.3215    0.0000 O   0  0  0  0  0  0  0  0  0  0  0  0
    2.3060   -5.9804    0.0000 C   0  0  0  0  0  0  0  0  0  0  0  0
    3.4590   -0.0000    0.0000 N   0  0  0  0  0  0  0  0  0  0  0  0
  1  2  2  0  0  0  0
  1  6  1  0  0  0  0
  2  5  1  0  0  0  0
  3  4  1  0  0  0  0
  3  5  2  0  0  0  0
  4  6  2  0  0  0  0
  4  7  1  0  0  0  0
  5  9  1  0  0  0  0
  6 11  1  0  0  0  0
  7  8  1  0  0  0  0
  9 10  1  0  0  0  0
M  END
>  <Substance ID> (iss2_110)
iss2_110

>  <FW_iss2> (iss2_110)
153.2

>  <Canc_iss2> (iss2_110)
1.0

>  <ChemName_iss2> (iss2_110)
2,4-Dimethoxyaniline Hydrochloride

>  <SMILES_iss2> (iss2_110)
COc1ccc(N)c(OC)c1

>  <SAL_iss2> (iss2_110)
3

>  <CAS_iss2> (iss2_110)
54150-69-5

>  <Formula_iss2> (iss2_110)
C8H11NO2

$$$$
iss2_127


 11 11  0  0  0  0  0  0  0  0999 V2000
    3.9926   -2.2942    0.0000 C   0  0  0  0  0  0  0  0  0  0  0  0
    3.3335   -3.4476    0.0000 C   0  0  0  0  0  0  0  0  0  0  0  0
    1.3309   -2.2942    0.0000 C   0  0  0  0  0  0  0  0  0  0  0  0
    2.0026   -1.1534    0.0000 C   0  0  0  0  0  0  0  0  0  0  0  0
    2.0026   -3.4476    0.0000 C   0  0  0  0  0  0  0  0  0  0  0  0
    3.3335   -1.1534    0.0000 C   0  0  0  0  0  0  0  0  0  0  0  0
    3.9926   -0.0000    0.0000 N   0  0  0  0  0  0  0  0  0  0  0  0
    1.3309   -0.0000    0.0000 N   0  0  0  0  0  0  0  0  0  0  0  0
    1.3309   -4.6010    0.0000 N   0  3  0  0  0  0  0  0  0  0  0  0
    0.0000   -4.6010    0.0000 O   0  5  0  0  0  0  0  0  0  0  0  0
    2.0026   -5.7544    0.0000 O   0  0  0  0  0  0  0  0  0  0  0  0
  1  2  2  0  0  0  0
  1  6  1  0  0  0  0
  2  5  1  0  0  0  0
  3  4  1  0  0  0  0
  3  5  2  0  0  0  0
  4  6  2  0  0  0  0
  4  8  1  0  0  0  0
  5  9  1  0  0  0  0
  6  7  1  0  0  0  0
  9 10  1  0  0  0  0
  9 11  2  0  0  0  0
M  CHG  2   9   1  10  -1
M  END
>  <Substance ID> (iss2_127)
iss2_127

>  <FW_iss2> (iss2_127)
153.1

>  <Canc_iss2> (iss2_127)
1.0

>  <ChemName_iss2> (iss2_127)
4-Nitro-orto-Phenylenediamine

>  <SMILES_iss2> (iss2_127)
O=[N+](C1=CC(=C(C=C1)N)N)[O-]

>  <SAL_iss2> (iss2_127)
3

>  <CAS_iss2> (iss2_127)
99-56-9

>  <Formula_iss2> (iss2_127)
C6H7N3O2

$$$$
iss2_131


  8  8  0  0  0  0  0  0  0  0999 V2000
    2.3047   -1.9881    0.0000 C   0  0  0  0  0  0  0  0  0  0  0  0
    2.3047   -3.3177    0.0000 C   0  0  0  0  0  0  0  0  0  0  0  0
    0.0000   -3.3177    0.0000 C   0  0  0  0  0  0  0  0  0  0  0  0
    0.0000   -1.9881    0.0000 C   0  0  0  0  0  0  0  0  0  0  0  0
    1.1523   -3.9889    0.0000 C   0  0  0  0  0  0  0  0  0  0  0  0
    1.1523   -1.3296    0.0000 C   0  0  0  0  0  0  0  0  0  0  0  0
    1.1523   -0.0000    0.0000 N   0  0  0  0  0  0  0  0  0  0  0  0
    1.1523   -5.3185    0.0000 N   0  0  0  0  0  0  0  0  0  0  0  0
  1  2  2  0  0  0  0
  1  6  1  0  0  0  0
  2  5  1  0  0  0  0
  3  4  1  0  0  0  0
  3  5  2  0  0  0  0
  4  6  2  0  0  0  0
  5  8  1  0  0  0  0
  6  7  1  0  0  0  0
M  END
>  <Substance ID> (iss2_131)
iss2_131

>  <FW_iss2> (iss2_131)
108.1

>  <Canc_iss2> (iss2_131)
1.0

>  <ChemName_iss2> (iss2_131)
p-Phenylenediamine Dihydrochloride

>  <SMILES_iss2> (iss2_131)
Nc1ccc(N)cc1

>  <SAL_iss2> (iss2_131)
3

>  <CAS_iss2> (iss2_131)
624-18-0

>  <Formula_iss2> (iss2_131)
C6H8N2

$$$$
iss2_133


 14 15  0  0  0  0  0  0  0  0999 V2000
    2.2983   -0.0000    0.0000 C   0  0  0  0  0  0  0  0  0  0  0  0
    3.4537   -0.6603    0.0000 C   0  0  0  0  0  0  0  0  0  0  0  0
    2.2983   -2.6538    0.0000 C   0  0  0  0  0  0  0  0  0  0  0  0
    1.1555   -1.9935    0.0000 C   0  0  0  0  0  0  0  0  0  0  0  0
    3.4537   -1.9935    0.0000 C   0  0  0  0  0  0  0  0  0  0  0  0
    1.1555   -0.6603    0.0000 C   0  0  0  0  0  0  0  0  0  0  0  0
    4.6092   -2.6538    0.0000 N   0  0  0  0  0  0  0  0  0  0  0  0
    5.7647   -1.9935    0.0000 C   0  0  0  0  0  0  0  0  0  0  0  0
    5.7647   -0.6603    0.0000 C   0  0  0  0  0  0  0  0  0  0  0  0
    8.0756   -0.6603    0.0000 C   0  0  0  0  0  0  0  0  0  0  0  0
    8.0756   -1.9935    0.0000 C   0  0  0  0  0  0  0  0  0  0  0  0
    6.9202   -0.0000    0.0000 C   0  0  0  0  0  0  0  0  0  0  0  0
    6.9202   -2.6538    0.0000 C   0  0  0  0  0  0  0  0  0  0  0  0
    0.0000   -0.0000    0.0000 N   0  0  0  0  0  0  0  0  0  0  0  0
  1  2  2  0  0  0  0
  1  6  1  0  0  0  0
  2  5  1  0  0  0  0
  3  4  1  0  0  0  0
  3  5  2  0  0  0  0
  4  6  2  0  0  0  0
  5  7  1  0  0  0  0
  6 14  1  0  0  0  0
  7  8  1  0  0  0  0
  8  9  2  0  0  0  0
  8 13  1  0  0  0  0
  9 12  1  0  0  0  0
 10 11  1  0  0  0  0
 10 12  2  0  0  0  0
 11 13  2  0  0  0  0
M  END
>  <Substance ID> (iss2_133)
iss2_133

>  <FW_iss2> (iss2_133)
184.2

>  <Canc_iss2> (iss2_133)
1.0

>  <ChemName_iss2> (iss2_133)
N-Phenyl-p-Phenylenediamine

>  <SMILES_iss2> (iss2_133)
NC1(=CC=C(C=C1)NC2=CC=CC=C2)

>  <SAL_iss2> (iss2_133)
1

>  <CAS_iss2> (iss2_133)
101-54-2

>  <Formula_iss2> (iss2_133)
C12H12N2

$$$$
iss2_143


 14 13  0  0  0  0  0  0  0  0999 V2000
    2.3590   -3.4226    0.0000 C   0  0  0  0  0  0  0  0  0  0  0  0
    1.1863   -4.1044    0.0000 C   0  0  0  0  0  0  0  0  0  0  0  0
    0.0000   -3.4226    0.0000 C   0  0  0  0  0  0  0  0  0  0  0  0
    0.0000   -2.0454    0.0000 C   0  0  0  0  0  0  0  0  0  0  0  0
    1.1863   -1.3636    0.0000 C   0  0  0  0  0  0  0  0  0  0  0  0
    2.3590   -2.0454    0.0000 C   0  0  0  0  0  0  0  0  0  0  0  0
    3.5453   -1.3636    0.0000 C   0  0  0  0  0  0  0  0  0  0  0  0
    1.1863   -0.0000    0.0000 N   0  0  0  0  0  0  0  0  0  0  0  0
    1.1863   -5.4679    0.0000 N   0  0  0  0  0  0  0  0  0  0  0  0
    7.3088   -6.7497    0.0000 S   0  0  0  0  0  0  0  0  0  0  0  0
    8.5633   -6.7497    0.0000 O   0  0  0  0  0  0  0  0  0  0  0  0
    7.3088   -5.5088    0.0000 O   0  0  0  0  0  0  0  0  0  0  0  0
    6.0679   -6.7497    0.0000 O   0  0  0  0  0  0  0  0  0  0  0  0
    7.3088   -8.0042    0.0000 O   0  0  0  0  0  0  0  0  0  0  0  0
  1  2  2  0  0  0  0
  1  6  1  0  0  0  0
  2  3  1  0  0  0  0
  2  9  1  0  0  0  0
  3  4  2  0  0  0  0
  4  5  1  0  0  0  0
  5  6  2  0  0  0  0
  5  8  1  0  0  0  0
  6  7  1  0  0  0  0
 10 11  1  0  0  0  0
 10 12  2  0  0  0  0
 10 13  2  0  0  0  0
 10 14  1  0  0  0  0
M  END
>  <Substance ID> (iss2_143)
iss2_143

>  <FW_iss2> (iss2_143)
220.2

>  <Canc_iss2> (iss2_143)
1.0

>  <ChemName_iss2> (iss2_143)
2,5-Toluenediamine Sulfate 

>  <SMILES_iss2> (iss2_143)
OS(O)(=O)=O.Nc1ccc(N)c(c1)C

>  <SAL_iss2> (iss2_143)
3

>  <CAS_iss2> (iss2_143)
6369-59-1

>  <Formula_iss2> (iss2_143)
C7H12N2O4S

$$$$
iss2_146


 17 19  0  0  0  0  0  0  0  0999 V2000
    0.0000   -3.3170    0.0000 C   0  0  0  0  0  0  0  0  0  0  0  0
    0.0000   -1.9877    0.0000 C   0  0  0  0  0  0  0  0  0  0  0  0
    1.1521   -1.3293    0.0000 C   0  0  0  0  0  0  0  0  0  0  0  0
    1.1521   -3.9880    0.0000 C   0  0  0  0  0  0  0  0  0  0  0  0
    2.3042   -3.3170    0.0000 C   0  0  0  0  0  0  0  0  0  0  0  0
    2.3042   -1.9877    0.0000 C   0  0  0  0  0  0  0  0  0  0  0  0
    3.4562   -1.3293    0.0000 C   0  0  0  0  0  0  0  0  0  0  0  0
    3.4562   -3.9880    0.0000 C   0  0  0  0  0  0  0  0  0  0  0  0
    4.6083   -3.3170    0.0000 C   0  0  0  0  0  0  0  0  0  0  0  0
    4.6083   -1.9877    0.0000 C   0  0  0  0  0  0  0  0  0  0  0  0
    6.9125   -1.9877    0.0000 C   0  0  0  0  0  0  0  0  0  0  0  0
    6.9125   -3.3170    0.0000 C   0  0  0  0  0  0  0  0  0  0  0  0
    5.7604   -1.3293    0.0000 C   0  0  0  0  0  0  0  0  0  0  0  0
    5.7604   -3.9880    0.0000 C   0  0  0  0  0  0  0  0  0  0  0  0
    8.0645   -3.9880    0.0000 N   0  0  0  0  0  0  0  0  0  0  0  0
    3.4562   -5.3173    0.0000 O   0  0  0  0  0  0  0  0  0  0  0  0
    3.4562   -0.0000    0.0000 O   0  0  0  0  0  0  0  0  0  0  0  0
  1  2  2  0  0  0  0
  1  4  1  0  0  0  0
  2  3  1  0  0  0  0
  3  6  2  0  0  0  0
  4  5  2  0  0  0  0
  5  6  1  0  0  0  0
  5  8  1  0  0  0  0
  6  7  1  0  0  0  0
  7 10  1  0  0  0  0
  7 17  2  0  0  0  0
  8  9  1  0  0  0  0
  8 16  2  0  0  0  0
  9 10  2  0  0  0  0
  9 14  1  0  0  0  0
 10 13  1  0  0  0  0
 11 12  1  0  0  0  0
 11 13  2  0  0  0  0
 12 14  2  0  0  0  0
 12 15  1  0  0  0  0
M  END
>  <Substance ID> (iss2_146)
iss2_146

>  <FW_iss2> (iss2_146)
223.2

>  <Canc_iss2> (iss2_146)
3.0

>  <ChemName_iss2> (iss2_146)
2-Aminoanthraquinone 

>  <SMILES_iss2> (iss2_146)
O=C1C2=CC(=CC=C2C(=O)C3=C1C=CC=C3)N

>  <SAL_iss2> (iss2_146)
3

>  <CAS_iss2> (iss2_146)
117-79-3

>  <Formula_iss2> (iss2_146)
C14H9NO2

$$$$
iss2_147


 14 14  0  0  0  0  0  0  0  0999 V2000
    3.4557   -3.9874    0.0000 C   0  0  0  0  0  0  0  0  0  0  0  0
    3.4557   -5.3165    0.0000 C   0  0  0  0  0  0  0  0  0  0  0  0
    1.1519   -5.3165    0.0000 C   0  0  0  0  0  0  0  0  0  0  0  0
    1.1519   -3.9874    0.0000 C   0  0  0  0  0  0  0  0  0  0  0  0
    2.3038   -5.9874    0.0000 C   0  0  0  0  0  0  0  0  0  0  0  0
    2.3038   -3.3291    0.0000 C   0  0  0  0  0  0  0  0  0  0  0  0
    2.3038   -2.0000    0.0000 N   0  0  0  0  0  0  0  0  0  0  0  0
    0.0000   -5.9874    0.0000 N   0  0  0  0  0  0  0  0  0  0  0  0
    2.3038   -7.3165    0.0000 O   0  0  0  0  0  0  0  0  0  0  0  0
    1.1519   -1.3291    0.0000 C   0  0  0  0  0  0  0  0  0  0  0  0
    0.0000   -2.0000    0.0000 O   0  0  0  0  0  0  0  0  0  0  0  0
    1.1519   -0.0000    0.0000 C   0  0  0  0  0  0  0  0  0  0  0  0
    1.1519   -7.9747    0.0000 C   0  0  0  0  0  0  0  0  0  0  0  0
    1.1519   -9.3038    0.0000 C   0  0  0  0  0  0  0  0  0  0  0  0
  1  2  2  0  0  0  0
  1  6  1  0  0  0  0
  2  5  1  0  0  0  0
  3  4  1  0  0  0  0
  3  5  2  0  0  0  0
  3  8  1  0  0  0  0
  4  6  2  0  0  0  0
  5  9  1  0  0  0  0
  6  7  1  0  0  0  0
  7 10  1  0  0  0  0
  9 13  1  0  0  0  0
 10 11  2  0  0  0  0
 10 12  1  0  0  0  0
 13 14  1  0  0  0  0
M  END
>  <Substance ID> (iss2_147)
iss2_147

>  <FW_iss2> (iss2_147)
194.2

>  <Canc_iss2> (iss2_147)
3.0

>  <ChemName_iss2> (iss2_147)
3'-Amino-4'-Ethoxyacetanilide 

>  <SMILES_iss2> (iss2_147)
NC1=C(C=CC(=C1)NC(=O)C)OCC

>  <SAL_iss2> (iss2_147)
3

>  <CAS_iss2> (iss2_147)
17026-81-2

>  <Formula_iss2> (iss2_147)
C10H14N2O2

$$$$
iss2_148


 16 18  0  0  0  0  0  0  0  0999 V2000
    0.7734   -0.6593    0.0000 C   0  0  0  0  0  0  0  0  0  0  0  0
    1.9271   -0.0000    0.0000 C   0  0  0  0  0  0  0  0  0  0  0  0
    3.0681   -0.6593    0.0000 C   0  0  0  0  0  0  0  0  0  0  0  0
    0.7734   -1.9905    0.0000 C   0  0  0  0  0  0  0  0  0  0  0  0
    1.9271   -2.6624    0.0000 C   0  0  0  0  0  0  0  0  0  0  0  0
    3.0681   -1.9905    0.0000 C   0  0  0  0  0  0  0  0  0  0  0  0
    2.1933   -3.9556    0.0000 N   0  0  0  0  0  0  0  0  0  0  0  0
    3.5245   -4.0951    0.0000 C   0  0  0  0  0  0  0  0  0  0  0  0
    4.0570   -2.8779    0.0000 C   0  0  0  0  0  0  0  0  0  0  0  0
    6.1743   -3.8161    0.0000 C   0  0  0  0  0  0  0  0  0  0  0  0
    5.6291   -5.0332    0.0000 C   0  0  0  0  0  0  0  0  0  0  0  0
    5.3882   -2.7385    0.0000 C   0  0  0  0  0  0  0  0  0  0  0  0
    4.3106   -5.1727    0.0000 C   0  0  0  0  0  0  0  0  0  0  0  0
    7.4928   -3.6767    0.0000 N   0  0  0  0  0  0  0  0  0  0  0  0
    1.3059   -4.9445    0.0000 C   0  0  0  0  0  0  0  0  0  0  0  0
    0.0000   -4.6656    0.0000 C   0  0  0  0  0  0  0  0  0  0  0  0
  1  2  2  0  0  0  0
  1  4  1  0  0  0  0
  2  3  1  0  0  0  0
  3  6  2  0  0  0  0
  4  5  2  0  0  0  0
  5  6  1  0  0  0  0
  5  7  1  0  0  0  0
  6  9  1  0  0  0  0
  7  8  1  0  0  0  0
  7 15  1  0  0  0  0
  8  9  2  0  0  0  0
  8 13  1  0  0  0  0
  9 12  1  0  0  0  0
 10 11  1  0  0  0  0
 10 12  2  0  0  0  0
 10 14  1  0  0  0  0
 11 13  2  0  0  0  0
 15 16  1  0  0  0  0
M  END
>  <Substance ID> (iss2_148)
iss2_148

>  <FW_iss2> (iss2_148)
210.3

>  <Canc_iss2> (iss2_148)
3.0

>  <ChemName_iss2> (iss2_148)
3-Amino-9-Ethylcarbazole

>  <SMILES_iss2> (iss2_148)
c1cccc3c1c2c(ccc(N)c2)n3CC

>  <SAL_iss2> (iss2_148)
3

>  <CAS_iss2> (iss2_148)
132-32-1

>  <Formula_iss2> (iss2_148)
C14H14N2

$$$$
iss2_150


 11 11  0  0  0  0  0  0  0  0999 V2000
    3.4581   -3.9901    0.0000 C   0  0  0  0  0  0  0  0  0  0  0  0
    2.3054   -4.6488    0.0000 C   0  0  0  0  0  0  0  0  0  0  0  0
    1.1527   -2.6601    0.0000 C   0  0  0  0  0  0  0  0  0  0  0  0
    2.3054   -1.9887    0.0000 C   0  0  0  0  0  0  0  0  0  0  0  0
    1.1527   -3.9901    0.0000 C   0  0  0  0  0  0  0  0  0  0  0  0
    3.4581   -2.6601    0.0000 C   0  0  0  0  0  0  0  0  0  0  0  0
    4.6108   -1.9887    0.0000 O   0  0  0  0  0  0  0  0  0  0  0  0
    0.0000   -4.6488    0.0000 N   0  0  0  0  0  0  0  0  0  0  0  0
    2.3054   -0.6587    0.0000 N   0  3  0  0  0  0  0  0  0  0  0  0
    3.4581   -0.0000    0.0000 O   0  5  0  0  0  0  0  0  0  0  0  0
    1.1527   -0.0000    0.0000 O   0  0  0  0  0  0  0  0  0  0  0  0
  1  2  2  0  0  0  0
  1  6  1  0  0  0  0
  2  5  1  0  0  0  0
  3  4  1  0  0  0  0
  3  5  2  0  0  0  0
  4  6  2  0  0  0  0
  4  9  1  0  0  0  0
  5  8  1  0  0  0  0
  6  7  1  0  0  0  0
  9 10  1  0  0  0  0
  9 11  2  0  0  0  0
M  CHG  2   9   1  10  -1
M  END
>  <Substance ID> (iss2_150)
iss2_150

>  <FW_iss2> (iss2_150)
154.1

>  <Canc_iss2> (iss2_150)
3.0

>  <ChemName_iss2> (iss2_150)
4-Amino-2-Nitrophenol 

>  <SMILES_iss2> (iss2_150)
OC1=C(C=C(C=C1)N)[N+](=O)[O-]

>  <SAL_iss2> (iss2_150)
3

>  <CAS_iss2> (iss2_150)
119-34-6

>  <Formula_iss2> (iss2_150)
C6H6N2O3

$$$$
iss2_151


  9  9  0  0  0  0  0  0  0  0999 V2000
    2.7894   -2.2316    0.0000 S   0  0  0  0  0  0  0  0  0  0  0  0
    2.0033   -1.1538    0.0000 C   0  0  0  0  0  0  0  0  0  0  0  0
    2.7894   -0.0761    0.0000 C   0  0  0  0  0  0  0  0  0  0  0  0
    4.0447   -0.4945    0.0000 N   0  0  0  0  0  0  0  0  0  0  0  0
    4.0447   -1.8258    0.0000 C   0  0  0  0  0  0  0  0  0  0  0  0
    5.1224   -2.5993    0.0000 N   0  0  0  0  0  0  0  0  0  0  0  0
    0.6720   -1.1538    0.0000 N   0  3  0  0  0  0  0  0  0  0  0  0
    0.0000   -0.0000    0.0000 O   0  5  0  0  0  0  0  0  0  0  0  0
    0.0000   -2.3076    0.0000 O   0  0  0  0  0  0  0  0  0  0  0  0
  1  2  1  0  0  0  0
  1  5  1  0  0  0  0
  2  3  2  0  0  0  0
  2  7  1  0  0  0  0
  3  4  1  0  0  0  0
  4  5  2  0  0  0  0
  5  6  1  0  0  0  0
  7  8  1  0  0  0  0
  7  9  2  0  0  0  0
M  CHG  2   7   1   8  -1
M  END
>  <Substance ID> (iss2_151)
iss2_151

>  <FW_iss2> (iss2_151)
145.1

>  <Canc_iss2> (iss2_151)
3.0

>  <ChemName_iss2> (iss2_151)
2-Amino-5-Nitrothiazole 

>  <SMILES_iss2> (iss2_151)
O=[N+](C1=CN=C(S1)N)[O-]

>  <SAL_iss2> (iss2_151)
3

>  <CAS_iss2> (iss2_151)
121-66-4

>  <Formula_iss2> (iss2_151)
C3H3N3O2S

$$$$
iss2_152


  7  7  0  0  0  0  0  0  0  0999 V2000
    2.6598   -2.3052    0.0000 C   0  0  0  0  0  0  0  0  0  0  0  0
    2.0012   -3.4578    0.0000 C   0  0  0  0  0  0  0  0  0  0  0  0
    0.0000   -2.3052    0.0000 C   0  0  0  0  0  0  0  0  0  0  0  0
    0.6713   -1.1526    0.0000 C   0  0  0  0  0  0  0  0  0  0  0  0
    0.6713   -3.4578    0.0000 C   0  0  0  0  0  0  0  0  0  0  0  0
    2.0012   -1.1526    0.0000 C   0  0  0  0  0  0  0  0  0  0  0  0
    2.6598   -0.0000    0.0000 N   0  0  0  0  0  0  0  0  0  0  0  0
  1  2  2  0  0  0  0
  1  6  1  0  0  0  0
  2  5  1  0  0  0  0
  3  4  1  0  0  0  0
  3  5  2  0  0  0  0
  4  6  2  0  0  0  0
  6  7  1  0  0  0  0
M  END
>  <Substance ID> (iss2_152)
iss2_152

>  <FW_iss2> (iss2_152)
93.13

>  <Canc_iss2> (iss2_152)
3.0

>  <ChemName_iss2> (iss2_152)
Aniline Hydrochloride

>  <SMILES_iss2> (iss2_152)
Nc1ccccc1.Cl

>  <SAL_iss2> (iss2_152)
1

>  <CAS_iss2> (iss2_152)
142-04-1

>  <Formula_iss2> (iss2_152)
C6H7N

$$$$
iss2_153


  9  9  0  0  0  0  0  0  0  0999 V2000
    2.6581   -3.4556    0.0000 C   0  0  0  0  0  0  0  0  0  0  0  0
    1.9873   -4.6074    0.0000 C   0  0  0  0  0  0  0  0  0  0  0  0
    0.0000   -3.4556    0.0000 C   0  0  0  0  0  0  0  0  0  0  0  0
    0.6582   -2.3037    0.0000 C   0  0  0  0  0  0  0  0  0  0  0  0
    0.6582   -4.6074    0.0000 C   0  0  0  0  0  0  0  0  0  0  0  0
    1.9873   -2.3037    0.0000 C   0  0  0  0  0  0  0  0  0  0  0  0
    2.6581   -1.1519    0.0000 O   0  0  0  0  0  0  0  0  0  0  0  0
    0.0000   -1.1519    0.0000 N   0  0  0  0  0  0  0  0  0  0  0  0
    1.9873   -0.0000    0.0000 C   0  0  0  0  0  0  0  0  0  0  0  0
  1  2  2  0  0  0  0
  1  6  1  0  0  0  0
  2  5  1  0  0  0  0
  3  4  1  0  0  0  0
  3  5  2  0  0  0  0
  4  6  2  0  0  0  0
  4  8  1  0  0  0  0
  6  7  1  0  0  0  0
  7  9  1  0  0  0  0
M  END
>  <Substance ID> (iss2_153)
iss2_153

>  <FW_iss2> (iss2_153)
123.2

>  <Canc_iss2> (iss2_153)
3.0

>  <ChemName_iss2> (iss2_153)
2-Anisidine Hydrochloride

>  <SMILES_iss2> (iss2_153)
C1(=C(C=CC=C1)N)OC

>  <SAL_iss2> (iss2_153)
3

>  <CAS_iss2> (iss2_153)
134-29-2

>  <Formula_iss2> (iss2_153)
C7H9NO

$$$$
iss2_161


  8  8  0  0  0  0  0  0  0  0999 V2000
    2.3047   -1.9881    0.0000 C   0  0  0  0  0  0  0  0  0  0  0  0
    2.3047   -3.3177    0.0000 C   0  0  0  0  0  0  0  0  0  0  0  0
    0.0000   -3.3177    0.0000 C   0  0  0  0  0  0  0  0  0  0  0  0
    0.0000   -1.9881    0.0000 C   0  0  0  0  0  0  0  0  0  0  0  0
    1.1523   -3.9889    0.0000 C   0  0  0  0  0  0  0  0  0  0  0  0
    1.1523   -1.3296    0.0000 C   0  0  0  0  0  0  0  0  0  0  0  0
    1.1523   -5.3185    0.0000 Cl  0  0  0  0  0  0  0  0  0  0  0  0
    1.1523   -0.0000    0.0000 N   0  0  0  0  0  0  0  0  0  0  0  0
  1  2  2  0  0  0  0
  1  6  1  0  0  0  0
  2  5  1  0  0  0  0
  3  4  1  0  0  0  0
  3  5  2  0  0  0  0
  4  6  2  0  0  0  0
  5  7  1  0  0  0  0
  6  8  1  0  0  0  0
M  END
>  <Substance ID> (iss2_161)
iss2_161

>  <FW_iss2> (iss2_161)
127.6

>  <Canc_iss2> (iss2_161)
3.0

>  <ChemName_iss2> (iss2_161)
p-Chloroaniline Hydrochloride

>  <SMILES_iss2> (iss2_161)
C1(=CC=C(Cl)C=C1)N.Cl

>  <SAL_iss2> (iss2_161)
3

>  <CAS_iss2> (iss2_161)
20265-96-7

>  <Formula_iss2> (iss2_161)
C6H6ClN

$$$$
iss2_165


  9  9  0  0  0  0  0  0  0  0999 V2000
    3.4560   -1.9875    0.0000 C   0  0  0  0  0  0  0  0  0  0  0  0
    3.4560   -3.3168    0.0000 C   0  0  0  0  0  0  0  0  0  0  0  0
    1.1520   -3.3168    0.0000 C   0  0  0  0  0  0  0  0  0  0  0  0
    1.1520   -1.9875    0.0000 C   0  0  0  0  0  0  0  0  0  0  0  0
    2.3040   -3.9877    0.0000 C   0  0  0  0  0  0  0  0  0  0  0  0
    2.3040   -1.3292    0.0000 C   0  0  0  0  0  0  0  0  0  0  0  0
    2.3040   -0.0000    0.0000 N   0  0  0  0  0  0  0  0  0  0  0  0
    0.0000   -3.9877    0.0000 N   0  0  0  0  0  0  0  0  0  0  0  0
    2.3040   -5.3169    0.0000 Cl  0  0  0  0  0  0  0  0  0  0  0  0
  1  2  2  0  0  0  0
  1  6  1  0  0  0  0
  2  5  1  0  0  0  0
  3  4  1  0  0  0  0
  3  5  2  0  0  0  0
  3  8  1  0  0  0  0
  4  6  2  0  0  0  0
  5  9  1  0  0  0  0
  6  7  1  0  0  0  0
M  END
>  <Substance ID> (iss2_165)
iss2_165

>  <FW_iss2> (iss2_165)
142.6

>  <Canc_iss2> (iss2_165)
3.0

>  <ChemName_iss2> (iss2_165)
4-Chloro-meta-Phenylenediamine 

>  <SMILES_iss2> (iss2_165)
NC1=C(C=CC(=C1)N)Cl

>  <SAL_iss2> (iss2_165)
3

>  <CAS_iss2> (iss2_165)
5131-60-2

>  <Formula_iss2> (iss2_165)
C6H7ClN2

$$$$
iss2_166


  9  9  0  0  0  0  0  0  0  0999 V2000
    2.6581   -2.3037    0.0000 C   0  0  0  0  0  0  0  0  0  0  0  0
    1.9999   -3.4556    0.0000 C   0  0  0  0  0  0  0  0  0  0  0  0
    0.0000   -2.3037    0.0000 C   0  0  0  0  0  0  0  0  0  0  0  0
    0.6709   -1.1519    0.0000 C   0  0  0  0  0  0  0  0  0  0  0  0
    0.6709   -3.4556    0.0000 C   0  0  0  0  0  0  0  0  0  0  0  0
    1.9999   -1.1519    0.0000 C   0  0  0  0  0  0  0  0  0  0  0  0
    2.6581   -0.0000    0.0000 N   0  0  0  0  0  0  0  0  0  0  0  0
    0.0000   -0.0000    0.0000 N   0  0  0  0  0  0  0  0  0  0  0  0
    0.0000   -4.6074    0.0000 Cl  0  0  0  0  0  0  0  0  0  0  0  0
  1  2  2  0  0  0  0
  1  6  1  0  0  0  0
  2  5  1  0  0  0  0
  3  4  1  0  0  0  0
  3  5  2  0  0  0  0
  4  6  2  0  0  0  0
  4  8  1  0  0  0  0
  5  9  1  0  0  0  0
  6  7  1  0  0  0  0
M  END
>  <Substance ID> (iss2_166)
iss2_166

>  <FW_iss2> (iss2_166)
142.6

>  <Canc_iss2> (iss2_166)
3.0

>  <ChemName_iss2> (iss2_166)
4-Chloro-orto-Phenylenediamine 

>  <SMILES_iss2> (iss2_166)
NC1=C(C=CC(=C1)Cl)N

>  <SAL_iss2> (iss2_166)
3

>  <CAS_iss2> (iss2_166)
95-83-0

>  <Formula_iss2> (iss2_166)
C6H7ClN2

$$$$
iss2_168


  9  9  0  0  0  0  0  0  0  0999 V2000
    0.0000   -3.3312    0.0000 C   0  0  0  0  0  0  0  0  0  0  0  0
    0.0000   -2.0012    0.0000 C   0  0  0  0  0  0  0  0  0  0  0  0
    2.3052   -2.0012    0.0000 C   0  0  0  0  0  0  0  0  0  0  0  0
    2.3052   -3.3312    0.0000 C   0  0  0  0  0  0  0  0  0  0  0  0
    1.1526   -1.3299    0.0000 C   0  0  0  0  0  0  0  0  0  0  0  0
    1.1526   -3.9898    0.0000 C   0  0  0  0  0  0  0  0  0  0  0  0
    1.1526   -0.0000    0.0000 N   0  0  0  0  0  0  0  0  0  0  0  0
    1.1526   -5.3197    0.0000 C   0  0  0  0  0  0  0  0  0  0  0  0
    3.4578   -3.9898    0.0000 Cl  0  0  0  0  0  0  0  0  0  0  0  0
  1  2  2  0  0  0  0
  1  6  1  0  0  0  0
  2  5  1  0  0  0  0
  3  4  1  0  0  0  0
  3  5  2  0  0  0  0
  4  6  2  0  0  0  0
  4  9  1  0  0  0  0
  5  7  1  0  0  0  0
  6  8  1  0  0  0  0
M  END
>  <Substance ID> (iss2_168)
iss2_168

>  <FW_iss2> (iss2_168)
141.6

>  <Canc_iss2> (iss2_168)
1.0

>  <ChemName_iss2> (iss2_168)
3-Chloro-para-Toluidine 

>  <SMILES_iss2> (iss2_168)
ClC1=C(C=CC(=C1)N)C

>  <SAL_iss2> (iss2_168)
1

>  <CAS_iss2> (iss2_168)
95-74-9

>  <Formula_iss2> (iss2_168)
C7H8ClN

$$$$
iss2_169


  9  9  0  0  0  0  0  0  0  0999 V2000
    3.4447   -1.9883    0.0000 C   0  0  0  0  0  0  0  0  0  0  0  0
    3.4447   -3.3307    0.0000 C   0  0  0  0  0  0  0  0  0  0  0  0
    1.1398   -3.3307    0.0000 C   0  0  0  0  0  0  0  0  0  0  0  0
    1.1398   -1.9883    0.0000 C   0  0  0  0  0  0  0  0  0  0  0  0
    2.2922   -3.9892    0.0000 C   0  0  0  0  0  0  0  0  0  0  0  0
    2.2922   -1.3297    0.0000 C   0  0  0  0  0  0  0  0  0  0  0  0
    2.2922   -0.0000    0.0000 N   0  0  0  0  0  0  0  0  0  0  0  0
    2.2922   -5.3190    0.0000 Cl  0  0  0  0  0  0  0  0  0  0  0  0
    0.0000   -1.3297    0.0000 C   0  0  0  0  0  0  0  0  0  0  0  0
  1  2  2  0  0  0  0
  1  6  1  0  0  0  0
  2  5  1  0  0  0  0
  3  4  1  0  0  0  0
  3  5  2  0  0  0  0
  4  6  2  0  0  0  0
  4  9  1  0  0  0  0
  5  8  1  0  0  0  0
  6  7  1  0  0  0  0
M  END
>  <Substance ID> (iss2_169)
iss2_169

>  <FW_iss2> (iss2_169)
141.6

>  <Canc_iss2> (iss2_169)
3.0

>  <ChemName_iss2> (iss2_169)
4-Chloro-orto-Toluidine Hydrochloride

>  <SMILES_iss2> (iss2_169)
C1(=C(C=CC(=C1)Cl)N)C

>  <SAL_iss2> (iss2_169)
1

>  <CAS_iss2> (iss2_169)
3165-93-3

>  <Formula_iss2> (iss2_169)
C7H8ClN

$$$$
iss2_170


  9  9  0  0  0  0  0  0  0  0999 V2000
    3.4504   -2.0042    0.0000 C   0  0  0  0  0  0  0  0  0  0  0  0
    3.4504   -3.3362    0.0000 C   0  0  0  0  0  0  0  0  0  0  0  0
    1.1543   -3.3362    0.0000 C   0  0  0  0  0  0  0  0  0  0  0  0
    1.1543   -2.0042    0.0000 C   0  0  0  0  0  0  0  0  0  0  0  0
    2.3087   -3.9958    0.0000 C   0  0  0  0  0  0  0  0  0  0  0  0
    2.3087   -1.3319    0.0000 C   0  0  0  0  0  0  0  0  0  0  0  0
    2.3087   -0.0000    0.0000 N   0  0  0  0  0  0  0  0  0  0  0  0
    4.6047   -3.9958    0.0000 Cl  0  0  0  0  0  0  0  0  0  0  0  0
    0.0000   -1.3319    0.0000 C   0  0  0  0  0  0  0  0  0  0  0  0
  1  2  2  0  0  0  0
  1  6  1  0  0  0  0
  2  5  1  0  0  0  0
  2  8  1  0  0  0  0
  3  4  1  0  0  0  0
  3  5  2  0  0  0  0
  4  6  2  0  0  0  0
  4  9  1  0  0  0  0
  6  7  1  0  0  0  0
M  END
>  <Substance ID> (iss2_170)
iss2_170

>  <FW_iss2> (iss2_170)
141.6

>  <Canc_iss2> (iss2_170)
3.0

>  <ChemName_iss2> (iss2_170)
5-Chloro-orto-Toluidine 

>  <SMILES_iss2> (iss2_170)
NC1=CC(=CC=C1C)Cl

>  <SAL_iss2> (iss2_170)
1

>  <CAS_iss2> (iss2_170)
95-79-4

>  <Formula_iss2> (iss2_170)
C7H8ClN

$$$$
iss2_171


 23 24  0  0  1  0  0  0  0  0999 V2000
   -5.6628    0.1965    0.0000 C   0  0  0  0  0  0  0  0  0  0  0  0
   -5.7508   -1.1971    0.0000 C   0  0  0  0  0  0  0  0  0  0  0  0
   -4.5822   -1.9585    0.0000 C   0  0  0  0  0  0  0  0  0  0  0  0
   -3.3326   -1.3328    0.0000 C   0  0  0  0  0  0  0  0  0  0  0  0
   -3.2251    0.0667    0.0000 C   0  0  0  0  0  0  0  0  0  0  0  0
   -4.4142    0.8178    0.0000 C   0  0  0  0  0  0  0  0  0  0  0  0
   -1.9417    0.7894    0.0000 C   0  0  0  0  0  0  0  0  0  0  0  0
   -0.7128    0.2347    0.0000 C   0  0  0  0  0  0  0  0  0  0  0  0
    0.5627    1.0403    0.0000 C   0  0  0  0  0  0  0  0  0  0  0  0
    1.4106    0.7378    0.0000 O   0  0  0  0  0  0  0  0  0  0  0  0
    2.6300    1.3566    0.0000 C   0  0  0  0  0  0  0  0  0  0  0  0
    3.5954    1.1160    0.0000 C   0  0  0  0  0  0  0  0  0  0  0  0
    2.9386    2.1318    0.0000 O   0  0  0  0  0  0  0  0  0  0  0  0
    3.2452    0.2346    0.0000 C   0  0  0  0  0  0  0  0  0  0  0  0
    4.1279   -0.0103    0.0000 C   0  0  0  0  0  0  0  0  0  0  0  0
    5.3837    0.6176    0.0000 C   0  0  0  0  0  0  0  0  0  0  0  0
    5.7487    1.4877    0.0000 C   0  0  0  0  0  0  0  0  0  0  0  0
    4.8606    1.7450    0.0000 C   0  0  0  0  0  0  0  0  0  0  0  0
    5.2725    2.6161    0.0000 N   0  0  0  0  0  0  0  0  0  0  0  0
    1.0820    0.7736    0.0000 H   0  0  0  0  0  0  0  0  0  0  0  0
    3.8435   -0.7008    0.0000 H   0  0  0  0  0  0  0  0  0  0  0  0
    6.0785    0.4193    0.0000 H   0  0  0  0  0  0  0  0  0  0  0  0
    4.6214    2.8151    0.0000 H   0  0  0  0  0  0  0  0  0  0  0  0
  1  2  2  0  0  0  0
  1  6  1  0  0  0  0
  2  3  1  0  0  0  0
  3  4  2  0  0  0  0
  4  5  1  0  0  0  0
  5  6  2  0  0  0  0
  5  7  1  0  0  0  0
  7  8  2  0  0  0  0
  8  9  1  0  0  0  0
  9 10  1  1  0  0  0
  9 20  1  6  0  0  0
 10 11  1  0  0  0  0
 11 12  1  1  0  0  0
 11 13  2  0  0  0  0
 12 14  2  0  0  0  0
 12 18  1  0  0  0  0
 14 15  1  1  0  0  0
 15 16  2  0  0  0  0
 15 21  1  1  0  0  0
 16 17  1  6  0  0  0
 16 22  1  1  0  0  0
 17 18  2  0  0  0  0
 18 19  1  6  0  0  0
 19 23  1  6  0  0  0
M  END
>  <Substance ID> (iss2_171)
iss2_171

>  <FW_iss2> (iss2_171)
253.3

>  <Canc_iss2> (iss2_171)
3.0

>  <ChemName_iss2> (iss2_171)
Cinnamyl Anthranilate

>  <SMILES_iss2> (iss2_171)
NC1=C(C=CC=C1)C(=O)OC/C=C/C2=CC=CC=C2

>  <SAL_iss2> (iss2_171)
1

>  <CAS_iss2> (iss2_171)
87-29-6

>  <Formula_iss2> (iss2_171)
C16H15NO2

$$$$
iss2_172


 10 10  0  0  0  0  0  0  0  0999 V2000
    3.4552   -1.9997    0.0000 C   0  0  0  0  0  0  0  0  0  0  0  0
    3.4552   -3.3286    0.0000 C   0  0  0  0  0  0  0  0  0  0  0  0
    1.1517   -3.3286    0.0000 C   0  0  0  0  0  0  0  0  0  0  0  0
    1.1517   -1.9997    0.0000 C   0  0  0  0  0  0  0  0  0  0  0  0
    2.3035   -3.9868    0.0000 C   0  0  0  0  0  0  0  0  0  0  0  0
    2.3035   -1.3289    0.0000 C   0  0  0  0  0  0  0  0  0  0  0  0
    2.3035   -0.0000    0.0000 N   0  0  0  0  0  0  0  0  0  0  0  0
    2.3035   -5.3157    0.0000 O   0  0  0  0  0  0  0  0  0  0  0  0
    0.0000   -1.3289    0.0000 C   0  0  0  0  0  0  0  0  0  0  0  0
    1.1517   -5.9865    0.0000 C   0  0  0  0  0  0  0  0  0  0  0  0
  1  2  2  0  0  0  0
  1  6  1  0  0  0  0
  2  5  1  0  0  0  0
  3  4  1  0  0  0  0
  3  5  2  0  0  0  0
  4  6  2  0  0  0  0
  4  9  1  0  0  0  0
  5  8  1  0  0  0  0
  6  7  1  0  0  0  0
  8 10  1  0  0  0  0
M  END
>  <Substance ID> (iss2_172)
iss2_172

>  <FW_iss2> (iss2_172)
137.2

>  <Canc_iss2> (iss2_172)
3.0

>  <ChemName_iss2> (iss2_172)
meta-Cresidine 

>  <SMILES_iss2> (iss2_172)
COC1=CC(=C(C=C1)N)C

>  <SAL_iss2> (iss2_172)
3

>  <CAS_iss2> (iss2_172)
102-50-1

>  <Formula_iss2> (iss2_172)
C8H11NO

$$$$
iss2_173


 10 10  0  0  0  0  0  0  0  0999 V2000
    3.4568   -1.9880    0.0000 C   0  0  0  0  0  0  0  0  0  0  0  0
    3.4568   -3.3175    0.0000 C   0  0  0  0  0  0  0  0  0  0  0  0
    1.1523   -3.3175    0.0000 C   0  0  0  0  0  0  0  0  0  0  0  0
    1.1523   -1.9880    0.0000 C   0  0  0  0  0  0  0  0  0  0  0  0
    2.3046   -3.9887    0.0000 C   0  0  0  0  0  0  0  0  0  0  0  0
    2.3046   -1.3296    0.0000 C   0  0  0  0  0  0  0  0  0  0  0  0
    0.0000   -3.9887    0.0000 N   0  0  0  0  0  0  0  0  0  0  0  0
    2.3046   -5.3182    0.0000 O   0  0  0  0  0  0  0  0  0  0  0  0
    2.3046   -0.0000    0.0000 C   0  0  0  0  0  0  0  0  0  0  0  0
    3.4568   -5.9766    0.0000 C   0  0  0  0  0  0  0  0  0  0  0  0
  1  2  2  0  0  0  0
  1  6  1  0  0  0  0
  2  5  1  0  0  0  0
  3  4  1  0  0  0  0
  3  5  2  0  0  0  0
  3  7  1  0  0  0  0
  4  6  2  0  0  0  0
  5  8  1  0  0  0  0
  6  9  1  0  0  0  0
  8 10  1  0  0  0  0
M  END
>  <Substance ID> (iss2_173)
iss2_173

>  <FW_iss2> (iss2_173)
137.2

>  <Canc_iss2> (iss2_173)
3.0

>  <ChemName_iss2> (iss2_173)
para-Cresidine 

>  <SMILES_iss2> (iss2_173)
NC1=CC(=CC=C1OC)C

>  <SAL_iss2> (iss2_173)
3

>  <CAS_iss2> (iss2_173)
120-71-8

>  <Formula_iss2> (iss2_173)
C8H11NO

$$$$
iss2_175


 17 18  0  0  0  0  0  0  0  0999 V2000
    1.3327   -1.3193    0.0000 C   0  0  0  0  0  0  0  0  0  0  0  0
    2.0058   -0.1750    0.0000 C   0  0  0  0  0  0  0  0  0  0  0  0
    3.9981   -1.3193    0.0000 C   0  0  0  0  0  0  0  0  0  0  0  0
    3.3385   -2.4770    0.0000 C   0  0  0  0  0  0  0  0  0  0  0  0
    3.3385   -0.1750    0.0000 C   0  0  0  0  0  0  0  0  0  0  0  0
    2.0058   -2.4770    0.0000 C   0  0  0  0  0  0  0  0  0  0  0  0
    0.0000   -1.3193    0.0000 N   0  0  0  0  0  0  0  0  0  0  0  0
    5.3309   -1.3193    0.0000 S   0  0  0  0  0  0  0  0  0  0  0  0
    6.6636   -1.3193    0.0000 C   0  0  0  0  0  0  0  0  0  0  0  0
    5.3309   -0.0000    0.0000 O   0  0  0  0  0  0  0  0  0  0  0  0
    5.3309   -2.6520    0.0000 O   0  0  0  0  0  0  0  0  0  0  0  0
    7.3232   -0.1750    0.0000 C   0  0  0  0  0  0  0  0  0  0  0  0
    9.3290   -1.3193    0.0000 C   0  0  0  0  0  0  0  0  0  0  0  0
    8.6559   -2.4770    0.0000 C   0  0  0  0  0  0  0  0  0  0  0  0
    8.6559   -0.1750    0.0000 C   0  0  0  0  0  0  0  0  0  0  0  0
    7.3232   -2.4770    0.0000 C   0  0  0  0  0  0  0  0  0  0  0  0
   10.6482   -1.3193    0.0000 N   0  0  0  0  0  0  0  0  0  0  0  0
  1  2  2  0  0  0  0
  1  6  1  0  0  0  0
  1  7  1  0  0  0  0
  2  5  1  0  0  0  0
  3  4  1  0  0  0  0
  3  5  2  0  0  0  0
  3  8  1  0  0  0  0
  4  6  2  0  0  0  0
  8  9  1  0  0  0  0
  8 10  2  0  0  0  0
  8 11  2  0  0  0  0
  9 12  2  0  0  0  0
  9 16  1  0  0  0  0
 12 15  1  0  0  0  0
 13 14  1  0  0  0  0
 13 15  2  0  0  0  0
 13 17  1  0  0  0  0
 14 16  2  0  0  0  0
M  END
>  <Substance ID> (iss2_175)
iss2_175

>  <FW_iss2> (iss2_175)
248.3

>  <Canc_iss2> (iss2_175)
3.0

>  <ChemName_iss2> (iss2_175)
Dapsone

>  <SMILES_iss2> (iss2_175)
O=S(=O)(C1=CC=C(C=C1)N)C2=CC=C(C=C2)N

>  <SAL_iss2> (iss2_175)
1

>  <CAS_iss2> (iss2_175)
80-08-0

>  <Formula_iss2> (iss2_175)
C12H12N2O2S

$$$$
iss2_178


 10 10  0  0  0  0  0  0  0  0999 V2000
    2.6640   -2.2961    0.0000 C   0  0  0  0  0  0  0  0  0  0  0  0
    1.9916   -3.4505    0.0000 C   0  0  0  0  0  0  0  0  0  0  0  0
    0.0000   -2.2961    0.0000 C   0  0  0  0  0  0  0  0  0  0  0  0
    0.6597   -1.1544    0.0000 C   0  0  0  0  0  0  0  0  0  0  0  0
    0.6597   -3.4505    0.0000 C   0  0  0  0  0  0  0  0  0  0  0  0
    1.9916   -1.1544    0.0000 C   0  0  0  0  0  0  0  0  0  0  0  0
    2.6640   -0.0000    0.0000 O   0  0  0  0  0  0  0  0  0  0  0  0
    0.0000   -0.0000    0.0000 N   0  0  0  0  0  0  0  0  0  0  0  0
    0.0000   -4.6049    0.0000 N   0  0  0  0  0  0  0  0  0  0  0  0
    3.9960   -0.0000    0.0000 C   0  0  0  0  0  0  0  0  0  0  0  0
  1  2  2  0  0  0  0
  1  6  1  0  0  0  0
  2  5  1  0  0  0  0
  3  4  1  0  0  0  0
  3  5  2  0  0  0  0
  4  6  2  0  0  0  0
  4  8  1  0  0  0  0
  5  9  1  0  0  0  0
  6  7  1  0  0  0  0
  7 10  1  0  0  0  0
M  END
>  <Substance ID> (iss2_178)
iss2_178

>  <FW_iss2> (iss2_178)
138.2

>  <Canc_iss2> (iss2_178)
3.0

>  <ChemName_iss2> (iss2_178)
2,4-diaminoanisole

>  <SMILES_iss2> (iss2_178)
C1=CC(=CC(=C1OC)N)N

>  <SAL_iss2> (iss2_178)
3

>  <CAS_iss2> (iss2_178)
615-05-4

>  <Formula_iss2> (iss2_178)
C7H10N2O

$$$$
iss2_179


  9  9  0  0  0  0  0  0  0  0999 V2000
    0.0040   -2.1055    0.0000 C   0  0  0  0  0  0  0  0  0  0  0  0
    0.0000   -3.3625    0.0000 C   0  0  0  0  0  0  0  0  0  0  0  0
    2.2856   -3.4309    0.0000 C   0  0  0  0  0  0  0  0  0  0  0  0
    2.2901   -2.0490    0.0000 C   0  0  0  0  0  0  0  0  0  0  0  0
    1.1948   -4.0561    0.0000 C   0  0  0  0  0  0  0  0  0  0  0  0
    1.2032   -1.4173    0.0000 C   0  0  0  0  0  0  0  0  0  0  0  0
    3.4332   -1.3938    0.0000 N   0  0  0  0  0  0  0  0  0  0  0  0
    1.1910   -5.3737    0.0000 N   0  0  0  0  0  0  0  0  0  0  0  0
    1.2065   -0.0000    0.0000 C   0  0  0  0  0  0  0  0  0  0  0  0
  1  2  2  0  0  0  0
  1  6  1  0  0  0  0
  2  5  1  0  0  0  0
  3  4  1  0  0  0  0
  3  5  2  0  0  0  0
  4  6  2  0  0  0  0
  4  7  1  0  0  0  0
  5  8  1  0  0  0  0
  6  9  1  0  0  0  0
M  END
>  <Substance ID> (iss2_179)
iss2_179

>  <FW_iss2> (iss2_179)
122.2

>  <Canc_iss2> (iss2_179)
3.0

>  <ChemName_iss2> (iss2_179)
2,4-diaminotoluene

>  <SMILES_iss2> (iss2_179)
NC1=C(C=CC(=C1)N)C

>  <SAL_iss2> (iss2_179)
3

>  <CAS_iss2> (iss2_179)
95-80-7

>  <Formula_iss2> (iss2_179)
C7H10N2

$$$$
iss2_186


 52 57  0  0  0  0  0  0  0  0999 V2000
   17.2892   -3.4578    0.0000 C   0  0  0  0  0  0  0  0  0  0  0  0
   17.9605   -2.3052    0.0000 C   0  0  0  0  0  0  0  0  0  0  0  0
   19.2904   -2.3052    0.0000 C   0  0  0  0  0  0  0  0  0  0  0  0
   17.9605   -4.6104    0.0000 C   0  0  0  0  0  0  0  0  0  0  0  0
    1.3299   -1.1526    0.0000 C   0  0  0  0  0  0  0  0  0  0  0  0
    2.0012   -0.0000    0.0000 C   0  0  0  0  0  0  0  0  0  0  0  0
    3.9898   -1.1526    0.0000 C   0  0  0  0  0  0  0  0  0  0  0  0
    3.3312   -2.3052    0.0000 C   0  0  0  0  0  0  0  0  0  0  0  0
    3.3312   -0.0000    0.0000 C   0  0  0  0  0  0  0  0  0  0  0  0
    2.0012   -2.3052    0.0000 C   0  0  0  0  0  0  0  0  0  0  0  0
    3.9898   -3.4578    0.0000 N   0  0  0  0  0  0  0  0  0  0  0  0
    0.0000   -1.1526    0.0000 N   0  0  0  0  0  0  0  0  0  0  0  0
    5.3197   -1.1526    0.0000 N   0  0  0  0  0  0  0  0  0  0  0  0
    5.9910   -2.3052    0.0000 N   0  0  0  0  0  0  0  0  0  0  0  0
    7.3210   -2.3052    0.0000 C   0  0  0  0  0  0  0  0  0  0  0  0
    7.9796   -1.1526    0.0000 C   0  0  0  0  0  0  0  0  0  0  0  0
    9.9809   -2.3052    0.0000 C   0  0  0  0  0  0  0  0  0  0  0  0
    9.3096   -3.4578    0.0000 C   0  0  0  0  0  0  0  0  0  0  0  0
    9.3096   -1.1526    0.0000 C   0  0  0  0  0  0  0  0  0  0  0  0
    7.9796   -3.4578    0.0000 C   0  0  0  0  0  0  0  0  0  0  0  0
   11.3108   -2.3052    0.0000 C   0  0  0  0  0  0  0  0  0  0  0  0
   11.9694   -1.1526    0.0000 C   0  0  0  0  0  0  0  0  0  0  0  0
   13.9707   -2.3052    0.0000 C   0  0  0  0  0  0  0  0  0  0  0  0
   13.2994   -3.4578    0.0000 C   0  0  0  0  0  0  0  0  0  0  0  0
   13.2994   -1.1526    0.0000 C   0  0  0  0  0  0  0  0  0  0  0  0
   11.9694   -3.4578    0.0000 C   0  0  0  0  0  0  0  0  0  0  0  0
   15.3006   -2.3052    0.0000 N   0  0  0  0  0  0  0  0  0  0  0  0
   15.9592   -3.4578    0.0000 N   0  0  0  0  0  0  0  0  0  0  0  0
   19.2904   -4.6104    0.0000 C   0  0  0  0  0  0  0  0  0  0  0  0
   19.9491   -3.4578    0.0000 C   0  0  0  0  0  0  0  0  0  0  0  0
   21.9503   -4.6104    0.0000 C   0  0  0  0  0  0  0  0  0  0  0  0
   21.2790   -5.7631    0.0000 C   0  0  0  0  0  0  0  0  0  0  0  0
   21.2790   -3.4578    0.0000 C   0  0  0  0  0  0  0  0  0  0  0  0
   19.9491   -5.7631    0.0000 C   0  0  0  0  0  0  0  0  0  0  0  0
   21.9503   -6.9030    0.0000 N   0  0  0  0  0  0  0  0  0  0  0  0
   23.2802   -6.9030    0.0000 N   0  0  0  0  0  0  0  0  0  0  0  0
   23.9389   -8.0556    0.0000 C   0  0  0  0  0  0  0  0  0  0  0  0
   25.2688   -8.0556    0.0000 C   0  0  0  0  0  0  0  0  0  0  0  0
   25.2688  -10.3608    0.0000 C   0  0  0  0  0  0  0  0  0  0  0  0
   23.9389  -10.3608    0.0000 C   0  0  0  0  0  0  0  0  0  0  0  0
   25.9401   -9.2082    0.0000 C   0  0  0  0  0  0  0  0  0  0  0  0
   23.2802   -9.2082    0.0000 C   0  0  0  0  0  0  0  0  0  0  0  0
   17.2892   -5.7631    0.0000 N   0  0  0  0  0  0  0  0  0  0  0  0
   17.2892   -1.1526    0.0000 S   0  0  0  0  0  0  0  0  0  0  0  0
   23.2802   -4.6104    0.0000 S   0  0  0  0  0  0  0  0  0  0  0  0
   18.4418   -0.4813    0.0000 O   0  5  0  0  0  0  0  0  0  0  0  0
   24.6102   -4.6104    0.0000 O   0  5  0  0  0  0  0  0  0  0  0  0
   16.6305   -0.0000    0.0000 O   0  0  0  0  0  0  0  0  0  0  0  0
   16.1366   -1.8112    0.0000 O   0  0  0  0  0  0  0  0  0  0  0  0
   23.2802   -5.9404    0.0000 O   0  0  0  0  0  0  0  0  0  0  0  0
   23.2802   -3.2805    0.0000 O   0  0  0  0  0  0  0  0  0  0  0  0
   19.2904   -6.9030    0.0000 O   0  0  0  0  0  0  0  0  0  0  0  0
  1  2  2  0  0  0  0
  1  4  1  0  0  0  0
  1 28  1  0  0  0  0
  2  3  1  0  0  0  0
  2 44  1  0  0  0  0
  3 30  2  0  0  0  0
  4 29  2  0  0  0  0
  4 43  1  0  0  0  0
  5  6  2  0  0  0  0
  5 10  1  0  0  0  0
  5 12  1  0  0  0  0
  6  9  1  0  0  0  0
  7  8  1  0  0  0  0
  7  9  2  0  0  0  0
  7 13  1  0  0  0  0
  8 10  2  0  0  0  0
  8 11  1  0  0  0  0
 13 14  2  0  0  0  0
 14 15  1  0  0  0  0
 15 16  2  0  0  0  0
 15 20  1  0  0  0  0
 16 19  1  0  0  0  0
 17 18  1  0  0  0  0
 17 19  2  0  0  0  0
 17 21  1  0  0  0  0
 18 20  2  0  0  0  0
 21 22  2  0  0  0  0
 21 26  1  0  0  0  0
 22 25  1  0  0  0  0
 23 24  1  0  0  0  0
 23 25  2  0  0  0  0
 23 27  1  0  0  0  0
 24 26  2  0  0  0  0
 27 28  2  0  0  0  0
 29 30  1  0  0  0  0
 29 34  1  0  0  0  0
 30 33  1  0  0  0  0
 31 32  1  0  0  0  0
 31 33  2  0  0  0  0
 31 45  1  0  0  0  0
 32 34  2  0  0  0  0
 32 35  1  0  0  0  0
 34 52  1  0  0  0  0
 35 36  2  0  0  0  0
 36 37  1  0  0  0  0
 37 38  2  0  0  0  0
 37 42  1  0  0  0  0
 38 41  1  0  0  0  0
 39 40  1  0  0  0  0
 39 41  2  0  0  0  0
 40 42  2  0  0  0  0
 44 46  1  0  0  0  0
 44 48  2  0  0  0  0
 44 49  2  0  0  0  0
 45 47  1  0  0  0  0
 45 50  2  0  0  0  0
 45 51  2  0  0  0  0
M  CHG  2  46  -1  47  -1
M  END
>  <Substance ID> (iss2_186)
iss2_186

>  <FW_iss2> (iss2_186)
735.8

>  <Canc_iss2> (iss2_186)
3.0

>  <ChemName_iss2> (iss2_186)
C.I. Direct Black 38

>  <SMILES_iss2> (iss2_186)
[Na+].[O-]S(=O)(=O)c4c(/N=N/c3ccc(c2ccc(/N=N/c1ccc(N)cc1N)cc2)cc3)c(N)c6c(c4)cc(c(/N=N/c5ccccc5)c6O)S([O-])(=O)=O.[Na+]

>  <SAL_iss2> (iss2_186)
3

>  <CAS_iss2> (iss2_186)
1937-37-7

>  <Formula_iss2> (iss2_186)
C34H25N9O7S2

$$$$
iss2_189


 20 22  0  0  0  0  0  0  0  0999 V2000
    7.0387   -3.3598    0.0000 C   0  0  0  0  0  0  0  0  0  0  0  0
    7.0371   -1.9644    0.0000 C   0  0  0  0  0  0  0  0  0  0  0  0
    5.9396   -3.9955    0.0000 C   0  0  0  0  0  0  0  0  0  0  0  0
    5.9368   -1.3311    0.0000 C   0  0  0  0  0  0  0  0  0  0  0  0
    4.7284   -3.3001    0.0000 C   0  0  0  0  0  0  0  0  0  0  0  0
    4.7275   -2.0294    0.0000 C   0  0  0  0  0  0  0  0  0  0  0  0
    3.5179   -1.3327    0.0000 C   0  0  0  0  0  0  0  0  0  0  0  0
    3.5194   -3.9982    0.0000 C   0  0  0  0  0  0  0  0  0  0  0  0
    2.3102   -3.3010    0.0000 C   0  0  0  0  0  0  0  0  0  0  0  0
    2.3088   -2.0320    0.0000 C   0  0  0  0  0  0  0  0  0  0  0  0
    0.0000   -1.9726    0.0000 C   0  0  0  0  0  0  0  0  0  0  0  0
    0.0016   -3.3662    0.0000 C   0  0  0  0  0  0  0  0  0  0  0  0
    1.0978   -1.3356    0.0000 C   0  0  0  0  0  0  0  0  0  0  0  0
    1.1019   -4.0004    0.0000 C   0  0  0  0  0  0  0  0  0  0  0  0
    1.0947   -0.0044    0.0000 N   0  0  0  0  0  0  0  0  0  0  0  0
    1.1005   -5.3319    0.0000 N   0  0  0  0  0  0  0  0  0  0  0  0
    3.5163   -0.1535    0.0000 O   0  0  0  0  0  0  0  0  0  0  0  0
    3.5223   -5.1766    0.0000 O   0  0  0  0  0  0  0  0  0  0  0  0
    5.9374   -0.0000    0.0000 N   0  0  0  0  0  0  0  0  0  0  0  0
    5.9429   -5.3262    0.0000 N   0  0  0  0  0  0  0  0  0  0  0  0
  1  2  1  0  0  0  0
  1  3  2  0  0  0  0
  2  4  2  0  0  0  0
  3  5  1  0  0  0  0
  3 20  1  0  0  0  0
  4  6  1  0  0  0  0
  4 19  1  0  0  0  0
  5  6  2  0  0  0  0
  5  8  1  0  0  0  0
  6  7  1  0  0  0  0
  7 10  1  0  0  0  0
  7 17  2  0  0  0  0
  8  9  1  0  0  0  0
  8 18  2  0  0  0  0
  9 10  2  0  0  0  0
  9 14  1  0  0  0  0
 10 13  1  0  0  0  0
 11 12  1  0  0  0  0
 11 13  2  0  0  0  0
 12 14  2  0  0  0  0
 13 15  1  0  0  0  0
 14 16  1  0  0  0  0
M  END
>  <Substance ID> (iss2_189)
iss2_189

>  <FW_iss2> (iss2_189)
268.3

>  <Canc_iss2> (iss2_189)
3.0

>  <ChemName_iss2> (iss2_189)
C.I. Disperse Blue 1

>  <SMILES_iss2> (iss2_189)
O=C1C2=C(C(=CC=C2N)N)C(=O)C3=C(C=CC(=C13)N)N

>  <SAL_iss2> (iss2_189)
3

>  <CAS_iss2> (iss2_189)
2475-45-8

>  <Formula_iss2> (iss2_189)
C14H12N4O2

$$$$
iss2_204


 12 13  0  0  0  0  0  0  0  0999 V2000
    0.0000   -2.0528    0.0000 C   0  0  0  0  0  0  0  0  0  0  0  0
    0.0014   -3.3162    0.0000 C   0  0  0  0  0  0  0  0  0  0  0  0
    1.2062   -4.0076    0.0000 C   0  0  0  0  0  0  0  0  0  0  0  0
    1.2044   -1.3595    0.0000 C   0  0  0  0  0  0  0  0  0  0  0  0
    2.2956   -1.9961    0.0000 C   0  0  0  0  0  0  0  0  0  0  0  0
    2.2969   -3.3692    0.0000 C   0  0  0  0  0  0  0  0  0  0  0  0
    4.5882   -3.3820    0.0000 C   0  0  0  0  0  0  0  0  0  0  0  0
    4.5870   -1.9799    0.0000 C   0  0  0  0  0  0  0  0  0  0  0  0
    3.5055   -4.0382    0.0000 C   0  0  0  0  0  0  0  0  0  0  0  0
    3.5039   -1.3255    0.0000 C   0  0  0  0  0  0  0  0  0  0  0  0
    3.5281   -0.0000    0.0000 N   0  0  0  0  0  0  0  0  0  0  0  0
    1.2130   -5.3326    0.0000 N   0  0  0  0  0  0  0  0  0  0  0  0
  1  2  2  0  0  0  0
  1  4  1  0  0  0  0
  2  3  1  0  0  0  0
  3  6  2  0  0  0  0
  3 12  1  0  0  0  0
  4  5  2  0  0  0  0
  5  6  1  0  0  0  0
  5 10  1  0  0  0  0
  6  9  1  0  0  0  0
  7  8  1  0  0  0  0
  7  9  2  0  0  0  0
  8 10  2  0  0  0  0
 10 11  1  0  0  0  0
M  END
>  <Substance ID> (iss2_204)
iss2_204

>  <FW_iss2> (iss2_204)
158.2

>  <Canc_iss2> (iss2_204)
3.0

>  <ChemName_iss2> (iss2_204)
1,5-Naphthalenediamine

>  <SMILES_iss2> (iss2_204)
NC1=C2C(=CC=C1)C(=CC=C2)N

>  <SAL_iss2> (iss2_204)
3

>  <CAS_iss2> (iss2_204)
2243-62-1

>  <Formula_iss2> (iss2_204)
C10H10N2

$$$$
iss2_210


 12 12  0  0  0  0  0  0  0  0999 V2000
    3.4553   -3.9869    0.0000 C   0  0  0  0  0  0  0  0  0  0  0  0
    2.3036   -3.3161    0.0000 C   0  0  0  0  0  0  0  0  0  0  0  0
    3.4553   -1.3290    0.0000 C   0  0  0  0  0  0  0  0  0  0  0  0
    4.6071   -1.9871    0.0000 C   0  0  0  0  0  0  0  0  0  0  0  0
    2.3036   -1.9871    0.0000 C   0  0  0  0  0  0  0  0  0  0  0  0
    4.6071   -3.3161    0.0000 C   0  0  0  0  0  0  0  0  0  0  0  0
    1.1518   -3.9869    0.0000 N   0  3  0  0  0  0  0  0  0  0  0  0
    0.0000   -3.3161    0.0000 O   0  5  0  0  0  0  0  0  0  0  0  0
    1.1518   -5.3159    0.0000 O   0  0  0  0  0  0  0  0  0  0  0  0
    5.7589   -1.3290    0.0000 O   0  0  0  0  0  0  0  0  0  0  0  0
    5.7589   -3.9869    0.0000 N   0  0  0  0  0  0  0  0  0  0  0  0
    5.7589   -0.0000    0.0000 C   0  0  0  0  0  0  0  0  0  0  0  0
  1  2  2  0  0  0  0
  1  6  1  0  0  0  0
  2  5  1  0  0  0  0
  2  7  1  0  0  0  0
  3  4  1  0  0  0  0
  3  5  2  0  0  0  0
  4  6  2  0  0  0  0
  4 10  1  0  0  0  0
  6 11  1  0  0  0  0
  7  8  1  0  0  0  0
  7  9  2  0  0  0  0
 10 12  1  0  0  0  0
M  CHG  2   7   1   8  -1
M  END
>  <Substance ID> (iss2_210)
iss2_210

>  <FW_iss2> (iss2_210)
168.2

>  <Canc_iss2> (iss2_210)
3.0

>  <ChemName_iss2> (iss2_210)
5-Nitro-ortho-anisidine

>  <SMILES_iss2> (iss2_210)
O=[N+](C1=CC(=C(C=C1)OC)N)[O-]

>  <SAL_iss2> (iss2_210)
3

>  <CAS_iss2> (iss2_210)
99-59-2

>  <Formula_iss2> (iss2_210)
C7H8N2O3

$$$$
iss2_211


 11 11  0  0  0  0  0  0  0  0999 V2000
    3.4551   -3.9866    0.0000 C   0  0  0  0  0  0  0  0  0  0  0  0
    2.3034   -4.6574    0.0000 C   0  0  0  0  0  0  0  0  0  0  0  0
    1.1517   -2.6578    0.0000 C   0  0  0  0  0  0  0  0  0  0  0  0
    2.3034   -1.9996    0.0000 C   0  0  0  0  0  0  0  0  0  0  0  0
    1.1517   -3.9866    0.0000 C   0  0  0  0  0  0  0  0  0  0  0  0
    3.4551   -2.6578    0.0000 C   0  0  0  0  0  0  0  0  0  0  0  0
    4.6068   -1.9996    0.0000 N   0  0  0  0  0  0  0  0  0  0  0  0
    0.0000   -4.6574    0.0000 N   0  0  0  0  0  0  0  0  0  0  0  0
    2.3034   -0.6708    0.0000 N   0  3  0  0  0  0  0  0  0  0  0  0
    3.4551   -0.0000    0.0000 O   0  5  0  0  0  0  0  0  0  0  0  0
    1.1517   -0.0000    0.0000 O   0  0  0  0  0  0  0  0  0  0  0  0
  1  2  2  0  0  0  0
  1  6  1  0  0  0  0
  2  5  1  0  0  0  0
  3  4  1  0  0  0  0
  3  5  2  0  0  0  0
  4  6  2  0  0  0  0
  4  9  1  0  0  0  0
  5  8  1  0  0  0  0
  6  7  1  0  0  0  0
  9 10  1  0  0  0  0
  9 11  2  0  0  0  0
M  CHG  2   9   1  10  -1
M  END
>  <Substance ID> (iss2_211)
iss2_211

>  <FW_iss2> (iss2_211)
153.1

>  <Canc_iss2> (iss2_211)
3.0

>  <ChemName_iss2> (iss2_211)
2-nitro-1,4-phenylenediamine

>  <SMILES_iss2> (iss2_211)
NC1=C(C=C(C=C1)N)[N+](=O)[O-]

>  <SAL_iss2> (iss2_211)
3

>  <CAS_iss2> (iss2_211)
5307-14-2

>  <Formula_iss2> (iss2_211)
C6H7N3O2

$$$$
iss2_213


 11 11  0  0  0  0  0  0  0  0999 V2000
    3.3182   -3.4575    0.0000 C   0  0  0  0  0  0  0  0  0  0  0  0
    1.9884   -3.4575    0.0000 C   0  0  0  0  0  0  0  0  0  0  0  0
    1.9884   -1.1525    0.0000 C   0  0  0  0  0  0  0  0  0  0  0  0
    3.3182   -1.1525    0.0000 C   0  0  0  0  0  0  0  0  0  0  0  0
    1.3298   -2.3050    0.0000 C   0  0  0  0  0  0  0  0  0  0  0  0
    3.9894   -2.3050    0.0000 C   0  0  0  0  0  0  0  0  0  0  0  0
    5.3192   -2.3050    0.0000 N   0  0  0  0  0  0  0  0  0  0  0  0
    3.9894   -0.0000    0.0000 C   0  0  0  0  0  0  0  0  0  0  0  0
    1.3298   -4.6100    0.0000 N   0  3  0  0  0  0  0  0  0  0  0  0
    0.0000   -4.6100    0.0000 O   0  5  0  0  0  0  0  0  0  0  0  0
    1.9884   -5.7625    0.0000 O   0  0  0  0  0  0  0  0  0  0  0  0
  1  2  2  0  0  0  0
  1  6  1  0  0  0  0
  2  5  1  0  0  0  0
  2  9  1  0  0  0  0
  3  4  1  0  0  0  0
  3  5  2  0  0  0  0
  4  6  2  0  0  0  0
  4  8  1  0  0  0  0
  6  7  1  0  0  0  0
  9 10  1  0  0  0  0
  9 11  2  0  0  0  0
M  CHG  2   9   1  10  -1
M  END
>  <Substance ID> (iss2_213)
iss2_213

>  <FW_iss2> (iss2_213)
152.2

>  <Canc_iss2> (iss2_213)
3.0

>  <ChemName_iss2> (iss2_213)
5-Nitro-ortho-toluidine

>  <SMILES_iss2> (iss2_213)
O=[N+](C1=CC(=C(C=C1)C)N)[O-]

>  <SAL_iss2> (iss2_213)
3

>  <CAS_iss2> (iss2_213)
99-55-8

>  <Formula_iss2> (iss2_213)
C7H8N2O2

$$$$
iss2_215


 16 17  0  0  0  0  0  0  0  0999 V2000
    0.0000   -1.1523    0.0000 C   0  0  0  0  0  0  0  0  0  0  0  0
    0.6711   -0.0000    0.0000 C   0  0  0  0  0  0  0  0  0  0  0  0
    2.6591   -1.1523    0.0000 C   0  0  0  0  0  0  0  0  0  0  0  0
    2.0007   -2.3046    0.0000 C   0  0  0  0  0  0  0  0  0  0  0  0
    2.0007   -0.0000    0.0000 C   0  0  0  0  0  0  0  0  0  0  0  0
    0.6711   -2.3046    0.0000 C   0  0  0  0  0  0  0  0  0  0  0  0
    3.9887   -1.1523    0.0000 N   0  0  0  0  0  0  0  0  0  0  0  0
    4.6598   -2.3046    0.0000 N   0  0  0  0  0  0  0  0  0  0  0  0
    5.9893   -2.3046    0.0000 C   0  0  0  0  0  0  0  0  0  0  0  0
    6.6478   -1.1523    0.0000 C   0  0  0  0  0  0  0  0  0  0  0  0
    8.6485   -2.3046    0.0000 C   0  0  0  0  0  0  0  0  0  0  0  0
    7.9774   -3.4569    0.0000 N   0  0  0  0  0  0  0  0  0  0  0  0
    7.9774   -1.1523    0.0000 C   0  0  0  0  0  0  0  0  0  0  0  0
    6.6478   -3.4569    0.0000 C   0  0  0  0  0  0  0  0  0  0  0  0
    9.9780   -2.3046    0.0000 N   0  0  0  0  0  0  0  0  0  0  0  0
    5.9893   -4.6091    0.0000 N   0  0  0  0  0  0  0  0  0  0  0  0
  1  2  2  0  0  0  0
  1  6  1  0  0  0  0
  2  5  1  0  0  0  0
  3  4  1  0  0  0  0
  3  5  2  0  0  0  0
  3  7  1  0  0  0  0
  4  6  2  0  0  0  0
  7  8  2  0  0  0  0
  8  9  1  0  0  0  0
  9 10  2  0  0  0  0
  9 14  1  0  0  0  0
 10 13  1  0  0  0  0
 11 12  1  0  0  0  0
 11 13  2  0  0  0  0
 11 15  1  0  0  0  0
 12 14  2  0  0  0  0
 14 16  1  0  0  0  0
M  END
>  <Substance ID> (iss2_215)
iss2_215

>  <FW_iss2> (iss2_215)
213.2

>  <Canc_iss2> (iss2_215)
3.0

>  <ChemName_iss2> (iss2_215)
Phenazopyridine Hydrochloride

>  <SMILES_iss2> (iss2_215)
N(=N/c1ccc(nc1N)N)\c2ccccc2.Cl

>  <SAL_iss2> (iss2_215)
1

>  <CAS_iss2> (iss2_215)
136-40-3

>  <Formula_iss2> (iss2_215)
C11H11N5

$$$$
iss2_221


 16 18  0  0  0  0  0  0  0  0999 V2000
    1.1525   -1.9883    0.0000 C   0  0  0  0  0  0  0  0  0  0  0  0
    1.1525   -0.6586    0.0000 C   0  0  0  0  0  0  0  0  0  0  0  0
    2.3049   -0.0000    0.0000 C   0  0  0  0  0  0  0  0  0  0  0  0
    2.3049   -2.6595    0.0000 C   0  0  0  0  0  0  0  0  0  0  0  0
    3.4574   -1.9883    0.0000 C   0  0  0  0  0  0  0  0  0  0  0  0
    3.4574   -0.6586    0.0000 C   0  0  0  0  0  0  0  0  0  0  0  0
    4.6099   -0.0000    0.0000 N   0  0  0  0  0  0  0  0  0  0  0  0
    4.6099   -2.6595    0.0000 C   0  0  0  0  0  0  0  0  0  0  0  0
    5.7623   -1.9883    0.0000 C   0  0  0  0  0  0  0  0  0  0  0  0
    5.7623   -0.6586    0.0000 C   0  0  0  0  0  0  0  0  0  0  0  0
    8.0673   -0.6586    0.0000 C   0  0  0  0  0  0  0  0  0  0  0  0
    8.0673   -1.9883    0.0000 C   0  0  0  0  0  0  0  0  0  0  0  0
    6.9148   -0.0000    0.0000 C   0  0  0  0  0  0  0  0  0  0  0  0
    6.9148   -2.6595    0.0000 C   0  0  0  0  0  0  0  0  0  0  0  0
    0.0000   -0.0000    0.0000 N   0  0  0  0  0  0  0  0  0  0  0  0
    9.2197   -0.0000    0.0000 N   0  0  0  0  0  0  0  0  0  0  0  0
  1  2  2  0  0  0  0
  1  4  1  0  0  0  0
  2  3  1  0  0  0  0
  2 15  1  0  0  0  0
  3  6  2  0  0  0  0
  4  5  2  0  0  0  0
  5  6  1  0  0  0  0
  5  8  1  0  0  0  0
  6  7  1  0  0  0  0
  7 10  2  0  0  0  0
  8  9  2  0  0  0  0
  9 10  1  0  0  0  0
  9 14  1  0  0  0  0
 10 13  1  0  0  0  0
 11 12  1  0  0  0  0
 11 13  2  0  0  0  0
 11 16  1  0  0  0  0
 12 14  2  0  0  0  0
M  END
>  <Substance ID> (iss2_221)
iss2_221

>  <FW_iss2> (iss2_221)
209.2

>  <Canc_iss2> (iss2_221)
2.0

>  <ChemName_iss2> (iss2_221)
Proflavine Hydrochloride

>  <SMILES_iss2> (iss2_221)
n1c3c(cc2c1cc(N)cc2)ccc(c3)N.Cl

>  <SAL_iss2> (iss2_221)
3

>  <CAS_iss2> (iss2_221)
952-23-8

>  <Formula_iss2> (iss2_221)
C13H11N3

$$$$
iss2_227


 18 19  0  0  0  0  0  0  0  0999 V2000
    7.3144   -2.4805    0.0000 C   0  0  0  0  0  0  0  0  0  0  0  0
    8.6373   -2.6205    0.0000 C   0  0  0  0  0  0  0  0  0  0  0  0
    8.9172   -3.9180    0.0000 C   0  0  0  0  0  0  0  0  0  0  0  0
    7.7596   -4.5922    0.0000 N   0  0  0  0  0  0  0  0  0  0  0  0
    6.7801   -3.7017    0.0000 O   0  0  0  0  0  0  0  0  0  0  0  0
    1.3229   -1.3357    0.0000 C   0  0  0  0  0  0  0  0  0  0  0  0
    1.9971   -0.1781    0.0000 C   0  0  0  0  0  0  0  0  0  0  0  0
    3.9943   -1.3357    0.0000 C   0  0  0  0  0  0  0  0  0  0  0  0
    3.3201   -2.4805    0.0000 C   0  0  0  0  0  0  0  0  0  0  0  0
    3.3201   -0.1781    0.0000 C   0  0  0  0  0  0  0  0  0  0  0  0
    1.9971   -2.4805    0.0000 C   0  0  0  0  0  0  0  0  0  0  0  0
    0.0000   -1.3357    0.0000 N   0  0  0  0  0  0  0  0  0  0  0  0
    5.3172   -1.3357    0.0000 S   0  0  0  0  0  0  0  0  0  0  0  0
    6.6529   -1.3357    0.0000 N   0  0  0  0  0  0  0  0  0  0  0  0
    5.3172   -0.0000    0.0000 O   0  0  0  0  0  0  0  0  0  0  0  0
    5.3172   -2.6586    0.0000 O   0  0  0  0  0  0  0  0  0  0  0  0
   10.1384   -4.4650    0.0000 C   0  0  0  0  0  0  0  0  0  0  0  0
    9.5278   -1.6282    0.0000 C   0  0  0  0  0  0  0  0  0  0  0  0
  1  2  2  0  0  0  0
  1  5  1  0  0  0  0
  1 14  1  0  0  0  0
  2  3  1  0  0  0  0
  2 18  1  0  0  0  0
  3  4  2  0  0  0  0
  3 17  1  0  0  0  0
  4  5  1  0  0  0  0
  6  7  2  0  0  0  0
  6 11  1  0  0  0  0
  6 12  1  0  0  0  0
  7 10  1  0  0  0  0
  8  9  1  0  0  0  0
  8 10  2  0  0  0  0
  8 13  1  0  0  0  0
  9 11  2  0  0  0  0
 13 14  1  0  0  0  0
 13 15  2  0  0  0  0
 13 16  2  0  0  0  0
M  END
>  <Substance ID> (iss2_227)
iss2_227

>  <FW_iss2> (iss2_227)
267.3

>  <Canc_iss2> (iss2_227)
1.0

>  <ChemName_iss2> (iss2_227)
Sulfisoxazole

>  <SMILES_iss2> (iss2_227)
O=S(=O)(C1=CC=C(C=C1)N)NC2=C(C(=NO2)C)C

>  <SAL_iss2> (iss2_227)
1

>  <CAS_iss2> (iss2_227)
127-69-5

>  <Formula_iss2> (iss2_227)
C11H13N3O3S

$$$$
iss2_231


 15 16  0  0  0  0  0  0  0  0999 V2000
    1.1558   -1.9914    0.0000 C   0  0  0  0  0  0  0  0  0  0  0  0
    1.1558   -0.6545    0.0000 C   0  0  0  0  0  0  0  0  0  0  0  0
    3.4536   -0.6545    0.0000 C   0  0  0  0  0  0  0  0  0  0  0  0
    3.4536   -1.9914    0.0000 C   0  0  0  0  0  0  0  0  0  0  0  0
    2.3117   -0.0000    0.0000 C   0  0  0  0  0  0  0  0  0  0  0  0
    2.3117   -2.6598    0.0000 C   0  0  0  0  0  0  0  0  0  0  0  0
    0.0000   -2.6598    0.0000 N   0  0  0  0  0  0  0  0  0  0  0  0
    4.6094   -0.0000    0.0000 S   0  0  0  0  0  0  0  0  0  0  0  0
    5.7652   -0.6545    0.0000 C   0  0  0  0  0  0  0  0  0  0  0  0
    6.9071   -0.0000    0.0000 C   0  0  0  0  0  0  0  0  0  0  0  0
    8.0630   -1.9914    0.0000 C   0  0  0  0  0  0  0  0  0  0  0  0
    6.9071   -2.6598    0.0000 C   0  0  0  0  0  0  0  0  0  0  0  0
    8.0630   -0.6545    0.0000 C   0  0  0  0  0  0  0  0  0  0  0  0
    5.7652   -1.9914    0.0000 C   0  0  0  0  0  0  0  0  0  0  0  0
    9.2188   -2.6598    0.0000 N   0  0  0  0  0  0  0  0  0  0  0  0
  1  2  2  0  0  0  0
  1  6  1  0  0  0  0
  1  7  1  0  0  0  0
  2  5  1  0  0  0  0
  3  4  1  0  0  0  0
  3  5  2  0  0  0  0
  3  8  1  0  0  0  0
  4  6  2  0  0  0  0
  8  9  1  0  0  0  0
  9 10  2  0  0  0  0
  9 14  1  0  0  0  0
 10 13  1  0  0  0  0
 11 12  1  0  0  0  0
 11 13  2  0  0  0  0
 11 15  1  0  0  0  0
 12 14  2  0  0  0  0
M  END
>  <Substance ID> (iss2_231)
iss2_231

>  <FW_iss2> (iss2_231)
216.3

>  <Canc_iss2> (iss2_231)
3.0

>  <ChemName_iss2> (iss2_231)
4,4'-Thiobisbenzenamine

>  <SMILES_iss2> (iss2_231)
C1(=CC=C(C=C1)SC2=CC=C(C=C2)N)N

>  <SAL_iss2> (iss2_231)
3

>  <CAS_iss2> (iss2_231)
139-65-1

>  <Formula_iss2> (iss2_231)
C12H12N2S

$$$$
iss2_235


 10 10  0  0  0  0  0  0  0  0999 V2000
    2.3043   -2.6588    0.0000 C   0  0  0  0  0  0  0  0  0  0  0  0
    1.1521   -1.9878    0.0000 C   0  0  0  0  0  0  0  0  0  0  0  0
    2.3043   -0.0000    0.0000 C   0  0  0  0  0  0  0  0  0  0  0  0
    3.4564   -0.6584    0.0000 C   0  0  0  0  0  0  0  0  0  0  0  0
    1.1521   -0.6584    0.0000 C   0  0  0  0  0  0  0  0  0  0  0  0
    3.4564   -1.9878    0.0000 C   0  0  0  0  0  0  0  0  0  0  0  0
    4.6086   -2.6588    0.0000 N   0  0  0  0  0  0  0  0  0  0  0  0
    4.6086   -0.0000    0.0000 C   0  0  0  0  0  0  0  0  0  0  0  0
    0.0000   -2.6588    0.0000 C   0  0  0  0  0  0  0  0  0  0  0  0
    0.0000   -0.0000    0.0000 C   0  0  0  0  0  0  0  0  0  0  0  0
  1  2  2  0  0  0  0
  1  6  1  0  0  0  0
  2  5  1  0  0  0  0
  2  9  1  0  0  0  0
  3  4  1  0  0  0  0
  3  5  2  0  0  0  0
  4  6  2  0  0  0  0
  4  8  1  0  0  0  0
  5 10  1  0  0  0  0
  6  7  1  0  0  0  0
M  END
>  <Substance ID> (iss2_235)
iss2_235

>  <FW_iss2> (iss2_235)
135.2

>  <Canc_iss2> (iss2_235)
3.0

>  <ChemName_iss2> (iss2_235)
2,4,5-Trimethylaniline

>  <SMILES_iss2> (iss2_235)
CC1=CC(=C(C=C1C)N)C

>  <SAL_iss2> (iss2_235)
3

>  <CAS_iss2> (iss2_235)
137-17-7

>  <Formula_iss2> (iss2_235)
C9H13N

$$$$
iss2_246


 13 14  0  0  0  0  0  0  0  0999 V2000
    0.6585   -0.0000    0.0000 C   0  0  0  0  0  0  0  0  0  0  0  0
    1.9880   -0.0000    0.0000 C   0  0  0  0  0  0  0  0  0  0  0  0
    1.9880   -2.3046    0.0000 C   0  0  0  0  0  0  0  0  0  0  0  0
    0.6585   -2.3046    0.0000 C   0  0  0  0  0  0  0  0  0  0  0  0
    2.6591   -1.1523    0.0000 C   0  0  0  0  0  0  0  0  0  0  0  0
    0.0000   -1.1523    0.0000 C   0  0  0  0  0  0  0  0  0  0  0  0
    3.9887   -1.1523    0.0000 C   0  0  0  0  0  0  0  0  0  0  0  0
    4.6472   -0.0000    0.0000 C   0  0  0  0  0  0  0  0  0  0  0  0
    6.6479   -1.1523    0.0000 C   0  0  0  0  0  0  0  0  0  0  0  0
    5.9767   -2.3046    0.0000 C   0  0  0  0  0  0  0  0  0  0  0  0
    5.9767   -0.0000    0.0000 C   0  0  0  0  0  0  0  0  0  0  0  0
    4.6472   -2.3046    0.0000 C   0  0  0  0  0  0  0  0  0  0  0  0
    7.9774   -1.1523    0.0000 N   0  0  0  0  0  0  0  0  0  0  0  0
  1  2  2  0  0  0  0
  1  6  1  0  0  0  0
  2  5  1  0  0  0  0
  3  4  1  0  0  0  0
  3  5  2  0  0  0  0
  4  6  2  0  0  0  0
  5  7  1  0  0  0  0
  7  8  2  0  0  0  0
  7 12  1  0  0  0  0
  8 11  1  0  0  0  0
  9 10  1  0  0  0  0
  9 11  2  0  0  0  0
  9 13  1  0  0  0  0
 10 12  2  0  0  0  0
M  END
>  <Substance ID> (iss2_246)
iss2_246

>  <FW_iss2> (iss2_246)
169.2

>  <Canc_iss2> (iss2_246)
3.0

>  <ChemName_iss2> (iss2_246)
4-Aminodiphenyl

>  <SMILES_iss2> (iss2_246)
NC1=CC=C(C=C1)C2=CC=CC=C2

>  <SAL_iss2> (iss2_246)
3

>  <CAS_iss2> (iss2_246)
92-67-1

>  <Formula_iss2> (iss2_246)
C12H11N

$$$$
iss2_254


 11 11  0  0  0  0  0  0  0  0999 V2000
    3.3294   -3.4560    0.0000 C   0  0  0  0  0  0  0  0  0  0  0  0
    2.0002   -3.4560    0.0000 C   0  0  0  0  0  0  0  0  0  0  0  0
    2.0002   -1.1520    0.0000 C   0  0  0  0  0  0  0  0  0  0  0  0
    3.3294   -1.1520    0.0000 C   0  0  0  0  0  0  0  0  0  0  0  0
    1.3292   -2.3040    0.0000 C   0  0  0  0  0  0  0  0  0  0  0  0
    3.9877   -2.3040    0.0000 C   0  0  0  0  0  0  0  0  0  0  0  0
    5.3169   -2.3040    0.0000 O   0  0  0  0  0  0  0  0  0  0  0  0
    3.9877   -0.0000    0.0000 N   0  0  0  0  0  0  0  0  0  0  0  0
    1.3292   -4.6080    0.0000 N   0  3  0  0  0  0  0  0  0  0  0  0
    0.0000   -4.6080    0.0000 O   0  5  0  0  0  0  0  0  0  0  0  0
    2.0002   -5.7600    0.0000 O   0  0  0  0  0  0  0  0  0  0  0  0
  1  2  2  0  0  0  0
  1  6  1  0  0  0  0
  2  5  1  0  0  0  0
  2  9  1  0  0  0  0
  3  4  1  0  0  0  0
  3  5  2  0  0  0  0
  4  6  2  0  0  0  0
  4  8  1  0  0  0  0
  6  7  1  0  0  0  0
  9 10  1  0  0  0  0
  9 11  2  0  0  0  0
M  CHG  2   9   1  10  -1
M  END
>  <Substance ID> (iss2_254)
iss2_254

>  <FW_iss2> (iss2_254)
154.1

>  <Canc_iss2> (iss2_254)
3.0

>  <ChemName_iss2> (iss2_254)
2-Amino-5-nitrophenol

>  <SMILES_iss2> (iss2_254)
O=[N+](C1=CC(=C(C=C1)N)O)[O-]

>  <SAL_iss2> (iss2_254)
3

>  <CAS_iss2> (iss2_254)
121-88-0

>  <Formula_iss2> (iss2_254)
C6H6N2O3

$$$$
iss2_258


 22 24  0  0  0  0  0  0  0  0999 V2000
    3.9912   -4.5994    0.0000 C   0  0  0  0  0  0  0  0  0  0  0  0
    4.6628   -3.4464    0.0000 C   0  0  0  0  0  0  0  0  0  0  0  0
    5.9932   -3.4464    0.0000 C   0  0  0  0  0  0  0  0  0  0  0  0
    6.6521   -4.5994    0.0000 C   0  0  0  0  0  0  0  0  0  0  0  0
    5.9932   -5.7525    0.0000 C   0  0  0  0  0  0  0  0  0  0  0  0
    4.6628   -5.7525    0.0000 C   0  0  0  0  0  0  0  0  0  0  0  0
    2.6608   -4.5994    0.0000 C   0  0  0  0  0  0  0  0  0  0  0  0
    2.0020   -3.4464    0.0000 C   0  0  0  0  0  0  0  0  0  0  0  0
    2.0020   -5.7525    0.0000 C   0  0  0  0  0  0  0  0  0  0  0  0
    0.6715   -3.4464    0.0000 C   0  0  0  0  0  0  0  0  0  0  0  0
    0.6715   -1.1530    0.0000 C   0  0  0  0  0  0  0  0  0  0  0  0
    2.0020   -1.1530    0.0000 C   0  0  0  0  0  0  0  0  0  0  0  0
    0.0000   -2.3060    0.0000 C   0  0  0  0  0  0  0  0  0  0  0  0
    2.6608   -2.3060    0.0000 C   0  0  0  0  0  0  0  0  0  0  0  0
    2.6608   -6.9055    0.0000 C   0  0  0  0  0  0  0  0  0  0  0  0
    0.6715   -8.0585    0.0000 C   0  0  0  0  0  0  0  0  0  0  0  0
    0.0000   -6.9055    0.0000 C   0  0  0  0  0  0  0  0  0  0  0  0
    2.0020   -8.0585    0.0000 C   0  0  0  0  0  0  0  0  0  0  0  0
    0.6715   -5.7525    0.0000 C   0  0  0  0  0  0  0  0  0  0  0  0
    0.0000   -0.0000    0.0000 N   0  0  0  0  0  0  0  0  0  0  0  0
    0.0000   -9.2115    0.0000 N   0  0  0  0  0  0  0  0  0  0  0  0
    7.9825   -4.5994    0.0000 N   0  3  0  0  0  0  0  0  0  0  0  0
  1  2  1  0  0  0  0
  1  6  1  0  0  0  0
  1  7  2  0  0  0  0
  2  3  2  0  0  0  0
  3  4  1  0  0  0  0
  4  5  1  0  0  0  0
  4 22  2  0  0  0  0
  5  6  2  0  0  0  0
  7  8  1  0  0  0  0
  7  9  1  0  0  0  0
  8 10  2  0  0  0  0
  8 14  1  0  0  0  0
  9 15  2  0  0  0  0
  9 19  1  0  0  0  0
 10 13  1  0  0  0  0
 11 12  1  0  0  0  0
 11 13  2  0  0  0  0
 11 20  1  0  0  0  0
 12 14  2  0  0  0  0
 15 18  1  0  0  0  0
 16 17  1  0  0  0  0
 16 18  2  0  0  0  0
 16 21  1  0  0  0  0
 17 19  2  0  0  0  0
M  CHG  1  22   1
M  END
>  <Substance ID> (iss2_258)
iss2_258

>  <FW_iss2> (iss2_258)
288.4

>  <Canc_iss2> (iss2_258)
3.0

>  <ChemName_iss2> (iss2_258)
C.I. Basic Red 9 Hydrochloride

>  <SMILES_iss2> (iss2_258)
[Cl-].[NH2+]=C\1/C=C\C(/C=C/1)=C(/c2ccc(N)cc2)c3ccc(N)cc3

>  <SAL_iss2> (iss2_258)
3

>  <CAS_iss2> (iss2_258)
569-61-9

>  <Formula_iss2> (iss2_258)
C19H18N3

$$$$
iss2_309


 19 21  0  0  0  0  0  0  0  0999 V2000
    3.9897   -2.2925    0.0000 C   0  0  0  0  0  0  0  0  0  0  0  0
    4.6610   -1.1399    0.0000 C   0  0  0  0  0  0  0  0  0  0  0  0
    5.9909   -1.1399    0.0000 N   0  0  0  0  0  0  0  0  0  0  0  0
    4.6610   -3.4451    0.0000 N   0  0  0  0  0  0  0  0  0  0  0  0
    5.9909   -3.4451    0.0000 C   0  0  0  0  0  0  0  0  0  0  0  0
    6.6495   -2.2925    0.0000 C   0  0  0  0  0  0  0  0  0  0  0  0
    8.6507   -3.4451    0.0000 C   0  0  0  0  0  0  0  0  0  0  0  0
    7.9794   -4.5977    0.0000 N   0  0  0  0  0  0  0  0  0  0  0  0
    7.9794   -2.2925    0.0000 N   0  0  0  0  0  0  0  0  0  0  0  0
    6.6495   -4.5977    0.0000 C   0  0  0  0  0  0  0  0  0  0  0  0
    2.6598   -2.2925    0.0000 C   0  0  0  0  0  0  0  0  0  0  0  0
    2.0012   -3.4451    0.0000 C   0  0  0  0  0  0  0  0  0  0  0  0
    0.0000   -2.2925    0.0000 C   0  0  0  0  0  0  0  0  0  0  0  0
    0.6713   -1.1399    0.0000 C   0  0  0  0  0  0  0  0  0  0  0  0
    0.6713   -3.4451    0.0000 C   0  0  0  0  0  0  0  0  0  0  0  0
    2.0012   -1.1399    0.0000 C   0  0  0  0  0  0  0  0  0  0  0  0
    5.9909   -5.7503    0.0000 N   0  0  0  0  0  0  0  0  0  0  0  0
    9.9806   -3.4451    0.0000 N   0  0  0  0  0  0  0  0  0  0  0  0
    3.9897   -0.0000    0.0000 N   0  0  0  0  0  0  0  0  0  0  0  0
  1  2  2  0  0  0  0
  1  4  1  0  0  0  0
  1 11  1  0  0  0  0
  2  3  1  0  0  0  0
  2 19  1  0  0  0  0
  3  6  2  0  0  0  0
  4  5  2  0  0  0  0
  5  6  1  0  0  0  0
  5 10  1  0  0  0  0
  6  9  1  0  0  0  0
  7  8  1  0  0  0  0
  7  9  2  0  0  0  0
  7 18  1  0  0  0  0
  8 10  2  0  0  0  0
 10 17  1  0  0  0  0
 11 12  2  0  0  0  0
 11 16  1  0  0  0  0
 12 15  1  0  0  0  0
 13 14  1  0  0  0  0
 13 15  2  0  0  0  0
 14 16  2  0  0  0  0
M  END
>  <Substance ID> (iss2_309)
iss2_309

>  <FW_iss2> (iss2_309)
253.3

>  <Canc_iss2> (iss2_309)
3.0

>  <ChemName_iss2> (iss2_309)
Triamterene

>  <SMILES_iss2> (iss2_309)
NC1=C2C(=NC(=N1)N)N=C(C(=N2)C3=CC=CC=C3)N

>  <SAL_iss2> (iss2_309)
1

>  <CAS_iss2> (iss2_309)
396-01-0

>  <Formula_iss2> (iss2_309)
C12H11N7

$$$$
iss2_317


  9  9  0  0  0  0  0  0  0  0999 V2000
    0.0038   -2.0177    0.0000 C   0  0  0  0  0  0  0  0  0  0  0  0
    0.0000   -3.2859    0.0000 C   0  0  0  0  0  0  0  0  0  0  0  0
    2.3057   -3.3559    0.0000 C   0  0  0  0  0  0  0  0  0  0  0  0
    2.3099   -1.9617    0.0000 C   0  0  0  0  0  0  0  0  0  0  0  0
    1.2056   -3.9866    0.0000 C   0  0  0  0  0  0  0  0  0  0  0  0
    1.2135   -1.3243    0.0000 C   0  0  0  0  0  0  0  0  0  0  0  0
    1.2176   -0.0000    0.0000 O   0  0  0  0  0  0  0  0  0  0  0  0
    1.2017   -5.3154    0.0000 N   0  0  0  0  0  0  0  0  0  0  0  0
    3.4632   -1.3006    0.0000 N   0  0  0  0  0  0  0  0  0  0  0  0
  1  2  2  0  0  0  0
  1  6  1  0  0  0  0
  2  5  1  0  0  0  0
  3  4  1  0  0  0  0
  3  5  2  0  0  0  0
  4  6  2  0  0  0  0
  4  9  1  0  0  0  0
  5  8  1  0  0  0  0
  6  7  1  0  0  0  0
M  END
>  <Substance ID> (iss2_317)
iss2_317

>  <FW_iss2> (iss2_317)
124.1

>  <Canc_iss2> (iss2_317)
3.0

>  <ChemName_iss2> (iss2_317)
2,4-Diaminophenol Dihydrochloride

>  <SMILES_iss2> (iss2_317)
C1(C(=CC=C(C=1)N)O)N

>  <SAL_iss2> (iss2_317)
3

>  <CAS_iss2> (iss2_317)
137-09-7

>  <Formula_iss2> (iss2_317)
C6H8N2O

$$$$
iss2_319


 10 10  0  0  0  0  0  0  0  0999 V2000
    2.3035   -1.9997    0.0000 C   0  0  0  0  0  0  0  0  0  0  0  0
    2.3035   -3.3286    0.0000 C   0  0  0  0  0  0  0  0  0  0  0  0
    0.0000   -3.3286    0.0000 C   0  0  0  0  0  0  0  0  0  0  0  0
    0.0000   -1.9997    0.0000 C   0  0  0  0  0  0  0  0  0  0  0  0
    1.1517   -3.9868    0.0000 C   0  0  0  0  0  0  0  0  0  0  0  0
    1.1517   -1.3289    0.0000 C   0  0  0  0  0  0  0  0  0  0  0  0
    1.1517   -0.0000    0.0000 N   0  0  0  0  0  0  0  0  0  0  0  0
    1.1517   -5.3157    0.0000 N   0  3  0  0  0  0  0  0  0  0  0  0
    0.0000   -5.9865    0.0000 O   0  5  0  0  0  0  0  0  0  0  0  0
    2.3035   -5.9865    0.0000 O   0  0  0  0  0  0  0  0  0  0  0  0
  1  2  2  0  0  0  0
  1  6  1  0  0  0  0
  2  5  1  0  0  0  0
  3  4  1  0  0  0  0
  3  5  2  0  0  0  0
  4  6  2  0  0  0  0
  5  8  1  0  0  0  0
  6  7  1  0  0  0  0
  8  9  1  0  0  0  0
  8 10  2  0  0  0  0
M  CHG  2   8   1   9  -1
M  END
>  <Substance ID> (iss2_319)
iss2_319

>  <FW_iss2> (iss2_319)
138.1

>  <Canc_iss2> (iss2_319)
2.0

>  <ChemName_iss2> (iss2_319)
4-Nitroaniline

>  <SMILES_iss2> (iss2_319)
O=[N+](C1=CC=C(C=C1)N)[O-]

>  <SAL_iss2> (iss2_319)
3

>  <CAS_iss2> (iss2_319)
100-01-6

>  <Formula_iss2> (iss2_319)
C6H6N2O2

$$$$
iss2_334


 14 16  0  0  0  0  0  0  0  0999 V2000
    2.6465   -0.2533    0.0000 N   0  0  0  0  0  0  0  0  0  0  0  0
    3.9128   -2.0007    0.0000 C   0  0  0  0  0  0  0  0  0  0  0  0
    3.9128   -0.6711    0.0000 C   0  0  0  0  0  0  0  0  0  0  0  0
    6.2174   -0.6711    0.0000 C   0  0  0  0  0  0  0  0  0  0  0  0
    6.2174   -2.0007    0.0000 C   0  0  0  0  0  0  0  0  0  0  0  0
    5.0651   -0.0000    0.0000 C   0  0  0  0  0  0  0  0  0  0  0  0
    5.0651   -2.6592    0.0000 N   0  0  0  0  0  0  0  0  0  0  0  0
    1.8614   -1.3296    0.0000 C   0  0  0  0  0  0  0  0  0  0  0  0
    2.6465   -2.4059    0.0000 N   0  0  0  0  0  0  0  0  0  0  0  0
    2.1020   -3.6216    0.0000 C   0  0  0  0  0  0  0  0  0  0  0  0
    0.7851   -3.7608    0.0000 C   0  0  0  0  0  0  0  0  0  0  0  0
    0.0000   -2.6845    0.0000 C   0  0  0  0  0  0  0  0  0  0  0  0
    0.5445   -1.4689    0.0000 C   0  0  0  0  0  0  0  0  0  0  0  0
    7.3697   -2.6592    0.0000 N   0  0  0  0  0  0  0  0  0  0  0  0
  1  8  2  0  0  0  0
  1  3  1  0  0  0  0
  2  9  1  0  0  0  0
  2  3  2  0  0  0  0
  2  7  1  0  0  0  0
  3  6  1  0  0  0  0
  4  5  1  0  0  0  0
  4  6  2  0  0  0  0
  5  7  2  0  0  0  0
  5 14  1  0  0  0  0
  8  9  1  0  0  0  0
  8 13  1  0  0  0  0
  9 10  1  0  0  0  0
 10 11  2  0  0  0  0
 11 12  1  0  0  0  0
 12 13  2  0  0  0  0
M  END
>  <Substance ID> (iss2_334)
iss2_334

>  <FW_iss2> (iss2_334)
184.2

>  <Canc_iss2> (iss2_334)
3.0

>  <ChemName_iss2> (iss2_334)
2-Aminodipyrido[1,2-a:3',2'-d]imidazole

>  <SMILES_iss2> (iss2_334)
N12C3=C(C=CC(=N3)N)N=C1C=CC=C2

>  <SAL_iss2> (iss2_334)
3

>  <CAS_iss2> (iss2_334)
67730-10-3

>  <Formula_iss2> (iss2_334)
C10H8N4

$$$$
iss2_336


 17 18  0  0  0  0  0  0  0  0999 V2000
    1.1403   -0.0000    0.0000 C   0  0  0  0  0  0  0  0  0  0  0  0
    2.2933   -0.6588    0.0000 C   0  0  0  0  0  0  0  0  0  0  0  0
    1.1403   -2.6607    0.0000 C   0  0  0  0  0  0  0  0  0  0  0  0
    0.0000   -1.9892    0.0000 C   0  0  0  0  0  0  0  0  0  0  0  0
    2.2933   -1.9892    0.0000 C   0  0  0  0  0  0  0  0  0  0  0  0
    0.0000   -0.6588    0.0000 C   0  0  0  0  0  0  0  0  0  0  0  0
    1.1403   -3.9911    0.0000 C   0  0  0  0  0  0  0  0  0  0  0  0
    3.4463   -2.6607    0.0000 N   0  0  0  0  0  0  0  0  0  0  0  0
    4.5993   -1.9892    0.0000 N   0  0  0  0  0  0  0  0  0  0  0  0
    5.7522   -2.6607    0.0000 C   0  0  0  0  0  0  0  0  0  0  0  0
    6.9052   -1.9892    0.0000 C   0  0  0  0  0  0  0  0  0  0  0  0
    8.0582   -3.9911    0.0000 C   0  0  0  0  0  0  0  0  0  0  0  0
    6.9052   -4.6499    0.0000 C   0  0  0  0  0  0  0  0  0  0  0  0
    8.0582   -2.6607    0.0000 C   0  0  0  0  0  0  0  0  0  0  0  0
    5.7522   -3.9911    0.0000 C   0  0  0  0  0  0  0  0  0  0  0  0
    6.9052   -5.9803    0.0000 C   0  0  0  0  0  0  0  0  0  0  0  0
    9.2112   -4.6499    0.0000 N   0  0  0  0  0  0  0  0  0  0  0  0
  1  2  2  0  0  0  0
  1  6  1  0  0  0  0
  2  5  1  0  0  0  0
  3  4  1  0  0  0  0
  3  5  2  0  0  0  0
  3  7  1  0  0  0  0
  4  6  2  0  0  0  0
  5  8  1  0  0  0  0
  8  9  2  0  0  0  0
  9 10  1  0  0  0  0
 10 11  2  0  0  0  0
 10 15  1  0  0  0  0
 11 14  1  0  0  0  0
 12 13  1  0  0  0  0
 12 14  2  0  0  0  0
 12 17  1  0  0  0  0
 13 15  2  0  0  0  0
 13 16  1  0  0  0  0
M  END
>  <Substance ID> (iss2_336)
iss2_336

>  <FW_iss2> (iss2_336)
225.3

>  <Canc_iss2> (iss2_336)
3.0

>  <ChemName_iss2> (iss2_336)
ortho-Aminoazotoluene

>  <SMILES_iss2> (iss2_336)
CC1=C(C=CC=C1)/N=N/C2=CC(=C(C=C2)N)C

>  <SAL_iss2> (iss2_336)
3

>  <CAS_iss2> (iss2_336)
97-56-3

>  <Formula_iss2> (iss2_336)
C14H15N3

$$$$
iss2_363


 14 16  0  0  0  0  0  0  0  0999 V2000
    2.6486   -0.2535    0.0000 O   0  0  0  0  0  0  0  0  0  0  0  0
    3.9159   -1.9896    0.0000 C   0  0  0  0  0  0  0  0  0  0  0  0
    3.9159   -0.6590    0.0000 C   0  0  0  0  0  0  0  0  0  0  0  0
    6.2223   -0.6590    0.0000 C   0  0  0  0  0  0  0  0  0  0  0  0
    6.2223   -1.9896    0.0000 C   0  0  0  0  0  0  0  0  0  0  0  0
    5.0691   -0.0000    0.0000 C   0  0  0  0  0  0  0  0  0  0  0  0
    5.0691   -2.6613    0.0000 C   0  0  0  0  0  0  0  0  0  0  0  0
    1.8629   -1.3306    0.0000 C   0  0  0  0  0  0  0  0  0  0  0  0
    2.6486   -2.4078    0.0000 C   0  0  0  0  0  0  0  0  0  0  0  0
    0.7857   -3.7511    0.0000 C   0  0  0  0  0  0  0  0  0  0  0  0
    0.0000   -2.6740    0.0000 C   0  0  0  0  0  0  0  0  0  0  0  0
    2.1037   -3.6117    0.0000 C   0  0  0  0  0  0  0  0  0  0  0  0
    0.5449   -1.4700    0.0000 C   0  0  0  0  0  0  0  0  0  0  0  0
    7.3756   -2.6613    0.0000 N   0  0  0  0  0  0  0  0  0  0  0  0
  1  8  1  0  0  0  0
  1  3  1  0  0  0  0
  2  9  1  0  0  0  0
  2  3  2  0  0  0  0
  2  7  1  0  0  0  0
  3  6  1  0  0  0  0
  4  5  1  0  0  0  0
  4  6  2  0  0  0  0
  5  7  2  0  0  0  0
  5 14  1  0  0  0  0
  8  9  2  0  0  0  0
  8 13  1  0  0  0  0
  9 12  1  0  0  0  0
 10 11  1  0  0  0  0
 10 12  2  0  0  0  0
 11 13  2  0  0  0  0
M  END
>  <Substance ID> (iss2_363)
iss2_363

>  <FW_iss2> (iss2_363)
183.2

>  <Canc_iss2> (iss2_363)
3.0

>  <ChemName_iss2> (iss2_363)
2-Aminodiphenylene oxide

>  <SMILES_iss2> (iss2_363)
o2c1ccccc1c3c2ccc(N)c3

>  <SAL_iss2> (iss2_363)
ND

>  <CAS_iss2> (iss2_363)
3693-22-9

>  <Formula_iss2> (iss2_363)
C12H9NO

$$$$
iss2_368


 15 17  0  0  0  0  0  0  0  0999 V2000
    2.8756   -1.3048    0.0000 N   0  0  0  0  0  0  0  0  0  0  0  0
    4.0917   -1.8495    0.0000 C   0  0  0  0  0  0  0  0  0  0  0  0
    3.9524   -3.1670    0.0000 N   0  0  0  0  0  0  0  0  0  0  0  0
    2.6603   -3.4457    0.0000 C   0  0  0  0  0  0  0  0  0  0  0  0
    1.9889   -4.5985    0.0000 C   0  0  0  0  0  0  0  0  0  0  0  0
    1.9889   -2.2929    0.0000 C   0  0  0  0  0  0  0  0  0  0  0  0
    0.6587   -2.2929    0.0000 C   0  0  0  0  0  0  0  0  0  0  0  0
    0.0000   -3.4457    0.0000 C   0  0  0  0  0  0  0  0  0  0  0  0
    0.6587   -4.5985    0.0000 C   0  0  0  0  0  0  0  0  0  0  0  0
    0.0000   -5.7512    0.0000 N   0  0  0  0  0  0  0  0  0  0  0  0
    0.6587   -6.9040    0.0000 C   0  0  0  0  0  0  0  0  0  0  0  0
    1.9889   -6.9040    0.0000 C   0  0  0  0  0  0  0  0  0  0  0  0
    2.6603   -5.7512    0.0000 C   0  0  0  0  0  0  0  0  0  0  0  0
    2.6096   -0.0000    0.0000 C   0  0  0  0  0  0  0  0  0  0  0  0
    5.2445   -1.1781    0.0000 N   0  0  0  0  0  0  0  0  0  0  0  0
  1  6  1  0  0  0  0
  1  2  1  0  0  0  0
  1 14  1  0  0  0  0
  2  3  2  0  0  0  0
  2 15  1  0  0  0  0
  3  4  1  0  0  0  0
  4  5  2  0  0  0  0
  4  6  1  0  0  0  0
  5 13  1  0  0  0  0
  5  9  1  0  0  0  0
  6  7  2  0  0  0  0
  7  8  1  0  0  0  0
  8  9  2  0  0  0  0
  9 10  1  0  0  0  0
 10 11  2  0  0  0  0
 11 12  1  0  0  0  0
 12 13  2  0  0  0  0
M  END
>  <Substance ID> (iss2_368)
iss2_368

>  <FW_iss2> (iss2_368)
198.2

>  <Canc_iss2> (iss2_368)
3.0

>  <ChemName_iss2> (iss2_368)
2-Amino-3-methylimidazo[4,5-f]quinoline

>  <SMILES_iss2> (iss2_368)
CN1C2=C(C3=C(C=C2)N=CC=C3)N=C1N

>  <SAL_iss2> (iss2_368)
3

>  <CAS_iss2> (iss2_368)
76180-96-6

>  <Formula_iss2> (iss2_368)
C11H10N4

$$$$
iss2_370


 15 17  0  0  0  0  0  0  0  0999 V2000
    2.8880   -0.0000    0.0000 N   0  0  0  0  0  0  0  0  0  0  0  0
    2.0013   -0.9880    0.0000 C   0  0  0  0  0  0  0  0  0  0  0  0
    2.6600   -2.1407    0.0000 C   0  0  0  0  0  0  0  0  0  0  0  0
    0.6713   -3.2933    0.0000 C   0  0  0  0  0  0  0  0  0  0  0  0
    0.0000   -2.1407    0.0000 C   0  0  0  0  0  0  0  0  0  0  0  0
    2.0013   -3.2933    0.0000 C   0  0  0  0  0  0  0  0  0  0  0  0
    0.6713   -0.9880    0.0000 C   0  0  0  0  0  0  0  0  0  0  0  0
    3.9647   -1.8620    0.0000 C   0  0  0  0  0  0  0  0  0  0  0  0
    4.1040   -0.5447    0.0000 C   0  0  0  0  0  0  0  0  0  0  0  0
    6.3967   -0.7853    0.0000 C   0  0  0  0  0  0  0  0  0  0  0  0
    6.2573   -2.1027    0.0000 C   0  0  0  0  0  0  0  0  0  0  0  0
    5.3200   -0.0000    0.0000 N   0  0  0  0  0  0  0  0  0  0  0  0
    5.0413   -2.6473    0.0000 C   0  0  0  0  0  0  0  0  0  0  0  0
    7.6000   -0.2407    0.0000 N   0  0  0  0  0  0  0  0  0  0  0  0
    7.3340   -2.8880    0.0000 C   0  0  0  0  0  0  0  0  0  0  0  0
  1  2  1  0  0  0  0
  1  9  1  0  0  0  0
  2  3  2  0  0  0  0
  2  7  1  0  0  0  0
  3  8  1  0  0  0  0
  3  6  1  0  0  0  0
  4  5  1  0  0  0  0
  4  6  2  0  0  0  0
  5  7  2  0  0  0  0
  8  9  2  0  0  0  0
  8 13  1  0  0  0  0
  9 12  1  0  0  0  0
 10 11  1  0  0  0  0
 10 12  2  0  0  0  0
 10 14  1  0  0  0  0
 11 13  2  0  0  0  0
 11 15  1  0  0  0  0
M  END
>  <Substance ID> (iss2_370)
iss2_370

>  <FW_iss2> (iss2_370)
197.2

>  <Canc_iss2> (iss2_370)
3.0

>  <ChemName_iss2> (iss2_370)
2-Amino-3-methyl-9H-pyrido[2,3-b]indole

>  <SMILES_iss2> (iss2_370)
n2c(c(cc3c1c(cccc1)nc23)C)N

>  <SAL_iss2> (iss2_370)
3

>  <CAS_iss2> (iss2_370)
68006-83-7

>  <Formula_iss2> (iss2_370)
C12H11N3

$$$$
iss2_374


 15 16  0  0  0  0  0  0  0  0999 V2000
    6.7727   -0.3671    0.0000 N   0  0  0  0  0  0  0  0  0  0  0  0
    8.0387   -0.7849    0.0000 C   0  0  0  0  0  0  0  0  0  0  0  0
    8.0387   -2.1141    0.0000 S   0  0  0  0  0  0  0  0  0  0  0  0
    6.7727   -2.5192    0.0000 C   0  0  0  0  0  0  0  0  0  0  0  0
    5.9879   -1.4432    0.0000 C   0  0  0  0  0  0  0  0  0  0  0  0
    4.6586   -1.4432    0.0000 C   0  0  0  0  0  0  0  0  0  0  0  0
    3.9877   -2.5952    0.0000 C   0  0  0  0  0  0  0  0  0  0  0  0
    2.0002   -1.4432    0.0000 C   0  0  0  0  0  0  0  0  0  0  0  0
    2.6585   -0.2912    0.0000 C   0  0  0  0  0  0  0  0  0  0  0  0
    2.6585   -2.5952    0.0000 C   0  0  0  0  0  0  0  0  0  0  0  0
    3.9877   -0.2912    0.0000 C   0  0  0  0  0  0  0  0  0  0  0  0
    9.1020   -0.0000    0.0000 N   0  0  0  0  0  0  0  0  0  0  0  0
    0.6709   -1.4432    0.0000 N   0  3  0  0  0  0  0  0  0  0  0  0
    0.0000   -0.2912    0.0000 O   0  5  0  0  0  0  0  0  0  0  0  0
    0.0000   -2.5952    0.0000 O   0  0  0  0  0  0  0  0  0  0  0  0
  1  2  2  0  0  0  0
  1  5  1  0  0  0  0
  2  3  1  0  0  0  0
  2 12  1  0  0  0  0
  3  4  1  0  0  0  0
  4  5  2  0  0  0  0
  5  6  1  0  0  0  0
  6  7  2  0  0  0  0
  6 11  1  0  0  0  0
  7 10  1  0  0  0  0
  8  9  1  0  0  0  0
  8 10  2  0  0  0  0
  8 13  1  0  0  0  0
  9 11  2  0  0  0  0
 13 14  1  0  0  0  0
 13 15  2  0  0  0  0
M  CHG  2  13   1  14  -1
M  END
>  <Substance ID> (iss2_374)
iss2_374

>  <FW_iss2> (iss2_374)
221.2

>  <Canc_iss2> (iss2_374)
3.0

>  <ChemName_iss2> (iss2_374)
2-Amino-4-(p-nitrophenyl)thiazole

>  <SMILES_iss2> (iss2_374)
[O-][N+](=O)c2ccc(c1nc(sc1)N)cc2

>  <SAL_iss2> (iss2_374)
ND

>  <CAS_iss2> (iss2_374)
2104-09-8

>  <Formula_iss2> (iss2_374)
C9H7N3O2S

$$$$
iss2_376


 14 15  0  0  0  0  0  0  0  0999 V2000
    6.5766   -3.3580    0.0000 N   0  0  0  0  0  0  0  0  0  0  0  0
    5.3601   -2.8258    0.0000 C   0  0  0  0  0  0  0  0  0  0  0  0
    5.4995   -1.4952    0.0000 O   0  0  0  0  0  0  0  0  0  0  0  0
    6.8046   -1.2165    0.0000 C   0  0  0  0  0  0  0  0  0  0  0  0
    7.4636   -2.3696    0.0000 N   0  0  0  0  0  0  0  0  0  0  0  0
    2.7751   -5.0813    0.0000 C   0  0  0  0  0  0  0  0  0  0  0  0
    2.1035   -3.9282    0.0000 C   0  0  0  0  0  0  0  0  0  0  0  0
    2.9905   -2.9398    0.0000 O   0  0  0  0  0  0  0  0  0  0  0  0
    4.2070   -3.4847    0.0000 C   0  0  0  0  0  0  0  0  0  0  0  0
    4.0676   -4.8152    0.0000 C   0  0  0  0  0  0  0  0  0  0  0  0
    7.3495   -0.0000    0.0000 N   0  0  0  0  0  0  0  0  0  0  0  0
    0.7856   -3.8015    0.0000 N   0  3  0  0  0  0  0  0  0  0  0  0
    0.2408   -2.5850    0.0000 O   0  5  0  0  0  0  0  0  0  0  0  0
    0.0000   -4.8659    0.0000 O   0  0  0  0  0  0  0  0  0  0  0  0
  1  2  2  0  0  0  0
  1  5  1  0  0  0  0
  2  3  1  0  0  0  0
  2  9  1  0  0  0  0
  3  4  1  0  0  0  0
  4  5  2  0  0  0  0
  4 11  1  0  0  0  0
  6  7  2  0  0  0  0
  6 10  1  0  0  0  0
  7  8  1  0  0  0  0
  7 12  1  0  0  0  0
  8  9  1  0  0  0  0
  9 10  2  0  0  0  0
 12 13  1  0  0  0  0
 12 14  2  0  0  0  0
M  CHG  2  12   1  13  -1
M  END
>  <Substance ID> (iss2_376)
iss2_376

>  <FW_iss2> (iss2_376)
196.1

>  <Canc_iss2> (iss2_376)
3.0

>  <ChemName_iss2> (iss2_376)
2-Amino-5-(5-nitro-2-furyl)-1,3,4-oxadiazole

>  <SMILES_iss2> (iss2_376)
[O-][N+](=O)c2oc(c1nnc(o1)N)cc2

>  <SAL_iss2> (iss2_376)
ND

>  <CAS_iss2> (iss2_376)
3775-55-1

>  <Formula_iss2> (iss2_376)
C6H4N4O4

$$$$
iss2_398


 14 15  0  0  0  0  0  0  0  0999 V2000
    2.0007   -2.3046    0.0000 C   0  0  0  0  0  0  0  0  0  0  0  0
    3.3303   -0.0000    0.0000 C   0  0  0  0  0  0  0  0  0  0  0  0
    2.0007   -0.0000    0.0000 C   0  0  0  0  0  0  0  0  0  0  0  0
    1.3296   -1.1523    0.0000 C   0  0  0  0  0  0  0  0  0  0  0  0
    3.9888   -1.1523    0.0000 C   0  0  0  0  0  0  0  0  0  0  0  0
    3.3303   -2.3046    0.0000 C   0  0  0  0  0  0  0  0  0  0  0  0
    5.3184   -1.1523    0.0000 C   0  0  0  0  0  0  0  0  0  0  0  0
    5.9895   -0.0000    0.0000 C   0  0  0  0  0  0  0  0  0  0  0  0
    7.9776   -1.1523    0.0000 C   0  0  0  0  0  0  0  0  0  0  0  0
    7.3191   -2.3046    0.0000 C   0  0  0  0  0  0  0  0  0  0  0  0
    7.3191   -0.0000    0.0000 C   0  0  0  0  0  0  0  0  0  0  0  0
    5.9895   -2.3046    0.0000 C   0  0  0  0  0  0  0  0  0  0  0  0
    0.0000   -1.1523    0.0000 F   0  0  0  0  0  0  0  0  0  0  0  0
    9.3072   -1.1523    0.0000 N   0  0  0  0  0  0  0  0  0  0  0  0
  1  6  2  0  0  0  0
  1  4  1  0  0  0  0
  2  3  1  0  0  0  0
  2  5  2  0  0  0  0
  3  4  2  0  0  0  0
  4 13  1  0  0  0  0
  5  6  1  0  0  0  0
  5  7  1  0  0  0  0
  7  8  2  0  0  0  0
  7 12  1  0  0  0  0
  8 11  1  0  0  0  0
  9 10  1  0  0  0  0
  9 11  2  0  0  0  0
  9 14  1  0  0  0  0
 10 12  2  0  0  0  0
M  END
>  <Substance ID> (iss2_398)
iss2_398

>  <FW_iss2> (iss2_398)
187.2

>  <Canc_iss2> (iss2_398)
3.0

>  <ChemName_iss2> (iss2_398)
4'-Fluoro-4-aminobiphenyl

>  <SMILES_iss2> (iss2_398)
NC1=CC=C(C=C1)C2=CC=C(C=C2)F

>  <SAL_iss2> (iss2_398)
ND

>  <CAS_iss2> (iss2_398)
324-93-6

>  <Formula_iss2> (iss2_398)
C12H10FN

$$$$
iss2_416


 16 18  0  0  0  0  0  0  0  0999 V2000
    0.6709   -3.2911    0.0000 C   0  0  0  0  0  0  0  0  0  0  0  0
    0.0000   -2.1392    0.0000 C   0  0  0  0  0  0  0  0  0  0  0  0
    0.6709   -0.9873    0.0000 C   0  0  0  0  0  0  0  0  0  0  0  0
    2.0000   -3.2911    0.0000 C   0  0  0  0  0  0  0  0  0  0  0  0
    2.6582   -2.1392    0.0000 C   0  0  0  0  0  0  0  0  0  0  0  0
    2.0000   -0.9873    0.0000 C   0  0  0  0  0  0  0  0  0  0  0  0
    2.8860   -0.0000    0.0000 O   0  0  0  0  0  0  0  0  0  0  0  0
    3.9620   -1.8607    0.0000 C   0  0  0  0  0  0  0  0  0  0  0  0
    4.1012   -0.5316    0.0000 C   0  0  0  0  0  0  0  0  0  0  0  0
    6.3923   -0.7721    0.0000 C   0  0  0  0  0  0  0  0  0  0  0  0
    6.2531   -2.1012    0.0000 C   0  0  0  0  0  0  0  0  0  0  0  0
    5.3164   -0.0000    0.0000 C   0  0  0  0  0  0  0  0  0  0  0  0
    5.0379   -2.6455    0.0000 C   0  0  0  0  0  0  0  0  0  0  0  0
    7.3290   -2.8860    0.0000 O   0  0  0  0  0  0  0  0  0  0  0  0
    7.6075   -0.2405    0.0000 N   0  0  0  0  0  0  0  0  0  0  0  0
    8.5442   -2.3417    0.0000 C   0  0  0  0  0  0  0  0  0  0  0  0
  1  2  2  0  0  0  0
  1  4  1  0  0  0  0
  2  3  1  0  0  0  0
  3  6  2  0  0  0  0
  4  5  2  0  0  0  0
  5  6  1  0  0  0  0
  5  8  1  0  0  0  0
  6  7  1  0  0  0  0
  7  9  1  0  0  0  0
  8  9  2  0  0  0  0
  8 13  1  0  0  0  0
  9 12  1  0  0  0  0
 10 11  1  0  0  0  0
 10 12  2  0  0  0  0
 10 15  1  0  0  0  0
 11 13  2  0  0  0  0
 11 14  1  0  0  0  0
 14 16  1  0  0  0  0
M  END
>  <Substance ID> (iss2_416)
iss2_416

>  <FW_iss2> (iss2_416)
213.2

>  <Canc_iss2> (iss2_416)
3.0

>  <ChemName_iss2> (iss2_416)
2-Methoxy-3-aminodibenzofuran

>  <SMILES_iss2> (iss2_416)
NC1=C(C=C2C3=C(C=CC=C3)OC2=C1)OC

>  <SAL_iss2> (iss2_416)
ND

>  <CAS_iss2> (iss2_416)
5834-17-3

>  <Formula_iss2> (iss2_416)
C13H11NO2

$$$$
iss2_429


 16 18  0  0  0  0  0  0  0  0999 V2000
    0.0000   -1.9906    0.0000 C   0  0  0  0  0  0  0  0  0  0  0  0
    0.0000   -0.6593    0.0000 C   0  0  0  0  0  0  0  0  0  0  0  0
    1.1411   -0.0000    0.0000 C   0  0  0  0  0  0  0  0  0  0  0  0
    1.1411   -2.6626    0.0000 C   0  0  0  0  0  0  0  0  0  0  0  0
    2.2949   -1.9906    0.0000 C   0  0  0  0  0  0  0  0  0  0  0  0
    2.2949   -0.6593    0.0000 C   0  0  0  0  0  0  0  0  0  0  0  0
    3.5628   -0.2536    0.0000 N   0  0  0  0  0  0  0  0  0  0  0  0
    3.5628   -2.4090    0.0000 C   0  0  0  0  0  0  0  0  0  0  0  0
    4.3489   -1.3313    0.0000 C   0  0  0  0  0  0  0  0  0  0  0  0
    6.2127   -2.6880    0.0000 C   0  0  0  0  0  0  0  0  0  0  0  0
    5.4266   -3.7530    0.0000 N   0  0  0  0  0  0  0  0  0  0  0  0
    5.6675   -1.4708    0.0000 C   0  0  0  0  0  0  0  0  0  0  0  0
    4.1080   -3.6135    0.0000 C   0  0  0  0  0  0  0  0  0  0  0  0
    3.3219   -4.6913    0.0000 C   0  0  0  0  0  0  0  0  0  0  0  0
    7.5440   -2.8148    0.0000 N   0  0  0  0  0  0  0  0  0  0  0  0
    6.4536   -0.3931    0.0000 C   0  0  0  0  0  0  0  0  0  0  0  0
  1  2  2  0  0  0  0
  1  4  1  0  0  0  0
  2  3  1  0  0  0  0
  3  6  2  0  0  0  0
  4  5  2  0  0  0  0
  5  6  1  0  0  0  0
  5  8  1  0  0  0  0
  6  7  1  0  0  0  0
  7  9  1  0  0  0  0
  8  9  2  0  0  0  0
  8 13  1  0  0  0  0
  9 12  1  0  0  0  0
 10 11  1  0  0  0  0
 10 12  2  0  0  0  0
 10 15  1  0  0  0  0
 11 13  2  0  0  0  0
 12 16  1  0  0  0  0
 13 14  1  0  0  0  0
M  END
>  <Substance ID> (iss2_429)
iss2_429

>  <FW_iss2> (iss2_429)
211.3

>  <Canc_iss2> (iss2_429)
3.0

>  <ChemName_iss2> (iss2_429)
3-Amino-1,4-dimethyl-5H-pyrido[4,3-b]indole acetate

>  <SMILES_iss2> (iss2_429)
N1C2=C(C3=C1C=CC=C3)C(=NC(=C2C)N)C

>  <SAL_iss2> (iss2_429)
3

>  <CAS_iss2> (iss2_429)
75104-43-7

>  <Formula_iss2> (iss2_429)
C13H13N3

$$$$
iss2_432


 14 15  0  0  0  0  0  0  0  0999 V2000
    5.7397   -2.0653    0.0000 C   0  0  0  0  0  0  0  0  0  0  0  0
    6.2846   -0.8489    0.0000 N   0  0  0  0  0  0  0  0  0  0  0  0
    7.6023   -0.9883    0.0000 C   0  0  0  0  0  0  0  0  0  0  0  0
    7.8810   -2.2934    0.0000 S   0  0  0  0  0  0  0  0  0  0  0  0
    6.7280   -2.9522    0.0000 C   0  0  0  0  0  0  0  0  0  0  0  0
    3.4464   -1.4571    0.0000 O   0  0  0  0  0  0  0  0  0  0  0  0
    4.4347   -2.3440    0.0000 C   0  0  0  0  0  0  0  0  0  0  0  0
    3.8898   -3.5604    0.0000 C   0  0  0  0  0  0  0  0  0  0  0  0
    2.5721   -3.4210    0.0000 C   0  0  0  0  0  0  0  0  0  0  0  0
    2.2934   -2.1160    0.0000 C   0  0  0  0  0  0  0  0  0  0  0  0
    8.4892   -0.0000    0.0000 N   0  0  0  0  0  0  0  0  0  0  0  0
    1.0770   -1.5838    0.0000 N   0  3  0  0  0  0  0  0  0  0  0  0
    0.9376   -0.2534    0.0000 O   0  5  0  0  0  0  0  0  0  0  0  0
    0.0000   -2.3567    0.0000 O   0  0  0  0  0  0  0  0  0  0  0  0
  1  2  1  0  0  0  0
  1  5  2  0  0  0  0
  1  7  1  0  0  0  0
  2  3  2  0  0  0  0
  3  4  1  0  0  0  0
  3 11  1  0  0  0  0
  4  5  1  0  0  0  0
  6  7  1  0  0  0  0
  6 10  1  0  0  0  0
  7  8  2  0  0  0  0
  8  9  1  0  0  0  0
  9 10  2  0  0  0  0
 10 12  1  0  0  0  0
 12 13  1  0  0  0  0
 12 14  2  0  0  0  0
M  CHG  2  12   1  13  -1
M  END
>  <Substance ID> (iss2_432)
iss2_432

>  <FW_iss2> (iss2_432)
211.2

>  <Canc_iss2> (iss2_432)
3.0

>  <ChemName_iss2> (iss2_432)
2-Amino-4-(5-nitro-2-furyl)thiazole

>  <SMILES_iss2> (iss2_432)
[O-][N+](=O)c2oc(c1nc(sc1)N)cc2

>  <SAL_iss2> (iss2_432)
3

>  <CAS_iss2> (iss2_432)
38514-71-5

>  <Formula_iss2> (iss2_432)
C7H5N3O3S

$$$$
iss2_438


 14 15  0  0  0  0  0  0  0  0999 V2000
    3.6090   -3.4571    0.0000 C   0  0  0  0  0  0  0  0  0  0  0  0
    2.9505   -2.3047    0.0000 C   0  0  0  0  0  0  0  0  0  0  0  0
    4.9387   -1.1524    0.0000 C   0  0  0  0  0  0  0  0  0  0  0  0
    5.6098   -2.3047    0.0000 C   0  0  0  0  0  0  0  0  0  0  0  0
    3.6090   -1.1524    0.0000 C   0  0  0  0  0  0  0  0  0  0  0  0
    4.9387   -3.4571    0.0000 C   0  0  0  0  0  0  0  0  0  0  0  0
    3.4951   -5.8251    0.0000 C   0  0  0  0  0  0  0  0  0  0  0  0
    2.5073   -6.7115    0.0000 S   0  0  0  0  0  0  0  0  0  0  0  0
    1.3550   -6.0530    0.0000 C   0  0  0  0  0  0  0  0  0  0  0  0
    1.6336   -4.7487    0.0000 N   0  0  0  0  0  0  0  0  0  0  0  0
    2.9505   -4.6094    0.0000 C   0  0  0  0  0  0  0  0  0  0  0  0
    5.6098   -0.0000    0.0000 N   0  0  0  0  0  0  0  0  0  0  0  0
    0.1393   -6.5849    0.0000 N   0  0  0  0  0  0  0  0  0  0  0  0
    0.0000   -7.9145    0.0000 N   0  0  0  0  0  0  0  0  0  0  0  0
  1  2  2  0  0  0  0
  1  6  1  0  0  0  0
  1 11  1  0  0  0  0
  2  5  1  0  0  0  0
  3  4  1  0  0  0  0
  3  5  2  0  0  0  0
  3 12  1  0  0  0  0
  4  6  2  0  0  0  0
  7  8  1  0  0  0  0
  7 11  2  0  0  0  0
  8  9  1  0  0  0  0
  9 10  2  0  0  0  0
  9 13  1  0  0  0  0
 10 11  1  0  0  0  0
 13 14  1  0  0  0  0
M  END
>  <Substance ID> (iss2_438)
iss2_438

>  <FW_iss2> (iss2_438)
206.3

>  <Canc_iss2> (iss2_438)
3.0

>  <ChemName_iss2> (iss2_438)
2-Hydrazino-4-(p-aminophenyl)thiazole

>  <SMILES_iss2> (iss2_438)
n2c(c1ccc(N)cc1)csc2NN

>  <SAL_iss2> (iss2_438)
3

>  <CAS_iss2> (iss2_438)
26049-71-8

>  <Formula_iss2> (iss2_438)
C9H10N4S

$$$$
iss2_449


 15 16  0  0  0  0  0  0  0  0999 V2000
    1.1528   -2.0015    0.0000 C   0  0  0  0  0  0  0  0  0  0  0  0
    1.1528   -0.6714    0.0000 C   0  0  0  0  0  0  0  0  0  0  0  0
    3.4583   -0.6714    0.0000 C   0  0  0  0  0  0  0  0  0  0  0  0
    3.4583   -2.0015    0.0000 C   0  0  0  0  0  0  0  0  0  0  0  0
    2.3055   -0.0000    0.0000 C   0  0  0  0  0  0  0  0  0  0  0  0
    2.3055   -2.6602    0.0000 C   0  0  0  0  0  0  0  0  0  0  0  0
    4.6111   -0.0000    0.0000 O   0  0  0  0  0  0  0  0  0  0  0  0
    5.7512   -0.6714    0.0000 C   0  0  0  0  0  0  0  0  0  0  0  0
    6.9040   -0.0000    0.0000 C   0  0  0  0  0  0  0  0  0  0  0  0
    8.0567   -2.0015    0.0000 C   0  0  0  0  0  0  0  0  0  0  0  0
    6.9040   -2.6602    0.0000 C   0  0  0  0  0  0  0  0  0  0  0  0
    8.0567   -0.6714    0.0000 C   0  0  0  0  0  0  0  0  0  0  0  0
    5.7512   -2.0015    0.0000 C   0  0  0  0  0  0  0  0  0  0  0  0
    0.0000   -2.6602    0.0000 Cl  0  0  0  0  0  0  0  0  0  0  0  0
    9.2095   -2.6602    0.0000 N   0  0  0  0  0  0  0  0  0  0  0  0
  1  2  2  0  0  0  0
  1  6  1  0  0  0  0
  1 14  1  0  0  0  0
  2  5  1  0  0  0  0
  3  4  1  0  0  0  0
  3  5  2  0  0  0  0
  3  7  1  0  0  0  0
  4  6  2  0  0  0  0
  7  8  1  0  0  0  0
  8  9  2  0  0  0  0
  8 13  1  0  0  0  0
  9 12  1  0  0  0  0
 10 11  1  0  0  0  0
 10 12  2  0  0  0  0
 10 15  1  0  0  0  0
 11 13  2  0  0  0  0
M  END
>  <Substance ID> (iss2_449)
iss2_449

>  <FW_iss2> (iss2_449)
219.7

>  <Canc_iss2> (iss2_449)
3.0

>  <ChemName_iss2> (iss2_449)
4-Chloro-4'-aminodiphenylether

>  <SMILES_iss2> (iss2_449)
NC1=CC=C(C=C1)OC2=CC=C(C=C2)Cl

>  <SAL_iss2> (iss2_449)
ND

>  <CAS_iss2> (iss2_449)
101-79-1

>  <Formula_iss2> (iss2_449)
C12H10ClNO

$$$$
iss2_452


 16 17  0  0  0  0  0  0  0  0999 V2000
    3.9892   -2.7734    0.0000 C   0  0  0  0  0  0  0  0  0  0  0  0
    4.7617   -1.6970    0.0000 O   0  0  0  0  0  0  0  0  0  0  0  0
    6.0281   -2.1149    0.0000 C   0  0  0  0  0  0  0  0  0  0  0  0
    6.0281   -3.4446    0.0000 C   0  0  0  0  0  0  0  0  0  0  0  0
    4.7617   -3.8499    0.0000 C   0  0  0  0  0  0  0  0  0  0  0  0
    0.6585   -3.9258    0.0000 C   0  0  0  0  0  0  0  0  0  0  0  0
    0.0000   -2.7734    0.0000 N   0  0  0  0  0  0  0  0  0  0  0  0
    1.9882   -1.6210    0.0000 N   0  0  0  0  0  0  0  0  0  0  0  0
    2.6594   -2.7734    0.0000 C   0  0  0  0  0  0  0  0  0  0  0  0
    0.6585   -1.6210    0.0000 C   0  0  0  0  0  0  0  0  0  0  0  0
    1.9882   -3.9258    0.0000 N   0  0  0  0  0  0  0  0  0  0  0  0
    0.0000   -0.4686    0.0000 N   0  0  0  0  0  0  0  0  0  0  0  0
    0.0000   -5.0783    0.0000 N   0  0  0  0  0  0  0  0  0  0  0  0
    7.1045   -1.3297    0.0000 N   0  3  0  0  0  0  0  0  0  0  0  0
    8.3203   -1.8743    0.0000 O   0  5  0  0  0  0  0  0  0  0  0  0
    6.9652   -0.0000    0.0000 O   0  0  0  0  0  0  0  0  0  0  0  0
  1  2  1  0  0  0  0
  1  5  2  0  0  0  0
  1  9  1  0  0  0  0
  2  3  1  0  0  0  0
  3  4  2  0  0  0  0
  3 14  1  0  0  0  0
  4  5  1  0  0  0  0
  6  7  2  0  0  0  0
  6 11  1  0  0  0  0
  6 13  1  0  0  0  0
  7 10  1  0  0  0  0
  8  9  1  0  0  0  0
  8 10  2  0  0  0  0
  9 11  2  0  0  0  0
 10 12  1  0  0  0  0
 14 15  1  0  0  0  0
 14 16  2  0  0  0  0
M  CHG  2  14   1  15  -1
M  END
>  <Substance ID> (iss2_452)
iss2_452

>  <FW_iss2> (iss2_452)
222.2

>  <Canc_iss2> (iss2_452)
3.0

>  <ChemName_iss2> (iss2_452)
4,6-Diamino-2-(5-nitro-2-furyl)-s-triazine

>  <SMILES_iss2> (iss2_452)
NC1=NC(=NC(=N1)C2=CC=C(O2)[N+]([O-])=O)N

>  <SAL_iss2> (iss2_452)
3

>  <CAS_iss2> (iss2_452)
720-69-4

>  <Formula_iss2> (iss2_452)
C7H6N6O3

$$$$
iss2_458


 16 17  0  0  0  0  0  0  0  0999 V2000
    1.3296   -1.1523    0.0000 C   0  0  0  0  0  0  0  0  0  0  0  0
    1.9880   -0.0000    0.0000 C   0  0  0  0  0  0  0  0  0  0  0  0
    3.9887   -1.1523    0.0000 C   0  0  0  0  0  0  0  0  0  0  0  0
    3.3176   -2.3046    0.0000 C   0  0  0  0  0  0  0  0  0  0  0  0
    3.3176   -0.0000    0.0000 C   0  0  0  0  0  0  0  0  0  0  0  0
    1.9880   -2.3046    0.0000 C   0  0  0  0  0  0  0  0  0  0  0  0
    5.3182   -1.1523    0.0000 C   0  0  0  0  0  0  0  0  0  0  0  0
    5.9767   -0.0000    0.0000 C   0  0  0  0  0  0  0  0  0  0  0  0
    7.9774   -1.1523    0.0000 C   0  0  0  0  0  0  0  0  0  0  0  0
    7.3062   -2.3046    0.0000 C   0  0  0  0  0  0  0  0  0  0  0  0
    7.3062   -0.0000    0.0000 C   0  0  0  0  0  0  0  0  0  0  0  0
    5.9767   -2.3046    0.0000 C   0  0  0  0  0  0  0  0  0  0  0  0
    0.0000   -1.1523    0.0000 N   0  0  0  0  0  0  0  0  0  0  0  0
    1.3296   -3.4569    0.0000 Cl  0  0  0  0  0  0  0  0  0  0  0  0
    7.9774   -3.4569    0.0000 Cl  0  0  0  0  0  0  0  0  0  0  0  0
    9.3069   -1.1523    0.0000 N   0  0  0  0  0  0  0  0  0  0  0  0
  1  2  2  0  0  0  0
  1  6  1  0  0  0  0
  1 13  1  0  0  0  0
  2  5  1  0  0  0  0
  3  4  1  0  0  0  0
  3  5  2  0  0  0  0
  3  7  1  0  0  0  0
  4  6  2  0  0  0  0
  6 14  1  0  0  0  0
  7  8  2  0  0  0  0
  7 12  1  0  0  0  0
  8 11  1  0  0  0  0
  9 10  1  0  0  0  0
  9 11  2  0  0  0  0
  9 16  1  0  0  0  0
 10 12  2  0  0  0  0
 10 15  1  0  0  0  0
M  END
>  <Substance ID> (iss2_458)
iss2_458

>  <FW_iss2> (iss2_458)
253.1

>  <Canc_iss2> (iss2_458)
3.0

>  <ChemName_iss2> (iss2_458)
3,3'-Dichlorobenzidine

>  <SMILES_iss2> (iss2_458)
ClC1=C(C=CC(=C1)C2=CC(=C(C=C2)N)Cl)N

>  <SAL_iss2> (iss2_458)
3

>  <CAS_iss2> (iss2_458)
91-94-1

>  <Formula_iss2> (iss2_458)
C12H10Cl2N2

$$$$
iss2_460


 16 18  0  0  0  0  0  0  0  0999 V2000
    0.6593   -2.3076    0.0000 N   0  0  0  0  0  0  0  0  0  0  0  0
    0.0000   -1.1538    0.0000 C   0  0  0  0  0  0  0  0  0  0  0  0
    0.6593   -0.0000    0.0000 C   0  0  0  0  0  0  0  0  0  0  0  0
    1.9906   -0.0000    0.0000 C   0  0  0  0  0  0  0  0  0  0  0  0
    2.6499   -1.1538    0.0000 C   0  0  0  0  0  0  0  0  0  0  0  0
    3.9812   -1.1538    0.0000 C   0  0  0  0  0  0  0  0  0  0  0  0
    4.8688   -0.1648    0.0000 N   0  0  0  0  0  0  0  0  0  0  0  0
    6.0860   -0.7100    0.0000 C   0  0  0  0  0  0  0  0  0  0  0  0
    5.9465   -2.0287    0.0000 N   0  0  0  0  0  0  0  0  0  0  0  0
    4.6532   -2.3076    0.0000 C   0  0  0  0  0  0  0  0  0  0  0  0
    3.9812   -3.4614    0.0000 C   0  0  0  0  0  0  0  0  0  0  0  0
    2.6499   -3.4614    0.0000 C   0  0  0  0  0  0  0  0  0  0  0  0
    1.9906   -2.3076    0.0000 C   0  0  0  0  0  0  0  0  0  0  0  0
    6.9355   -2.9162    0.0000 C   0  0  0  0  0  0  0  0  0  0  0  0
    7.2398   -0.0380    0.0000 N   0  0  0  0  0  0  0  0  0  0  0  0
    4.6532   -4.6025    0.0000 C   0  0  0  0  0  0  0  0  0  0  0  0
  1  2  1  0  0  0  0
  1 13  2  0  0  0  0
  2  3  2  0  0  0  0
  3  4  1  0  0  0  0
  4  5  2  0  0  0  0
  5  6  1  0  0  0  0
  5 13  1  0  0  0  0
  6  7  1  0  0  0  0
  6 10  2  0  0  0  0
  7  8  2  0  0  0  0
  8  9  1  0  0  0  0
  8 15  1  0  0  0  0
  9 10  1  0  0  0  0
  9 14  1  0  0  0  0
 10 11  1  0  0  0  0
 11 12  2  0  0  0  0
 11 16  1  0  0  0  0
 12 13  1  0  0  0  0
M  END
>  <Substance ID> (iss2_460)
iss2_460

>  <FW_iss2> (iss2_460)
212.3

>  <Canc_iss2> (iss2_460)
3.0

>  <ChemName_iss2> (iss2_460)
MeIQ

>  <SMILES_iss2> (iss2_460)
Cc2cc1ncccc1c3nc(N)n(C)c23

>  <SAL_iss2> (iss2_460)
3

>  <CAS_iss2> (iss2_460)
77094-11-2

>  <Formula_iss2> (iss2_460)
C12H12N4

$$$$
iss2_462


 15 17  0  0  0  0  0  0  0  0999 V2000
    2.4319   -1.4313    0.0000 N   0  0  0  0  0  0  0  0  0  0  0  0
    4.3951   -2.3052    0.0000 C   0  0  0  0  0  0  0  0  0  0  0  0
    3.7365   -1.1526    0.0000 C   0  0  0  0  0  0  0  0  0  0  0  0
    5.7250   -0.0000    0.0000 C   0  0  0  0  0  0  0  0  0  0  0  0
    6.3963   -1.1526    0.0000 C   0  0  0  0  0  0  0  0  0  0  0  0
    4.3951   -0.0000    0.0000 C   0  0  0  0  0  0  0  0  0  0  0  0
    5.7250   -2.3052    0.0000 N   0  0  0  0  0  0  0  0  0  0  0  0
    7.7263   -1.1526    0.0000 N   0  0  0  0  0  0  0  0  0  0  0  0
    2.2925   -2.7485    0.0000 C   0  0  0  0  0  0  0  0  0  0  0  0
    3.5085   -3.2932    0.0000 N   0  0  0  0  0  0  0  0  0  0  0  0
    3.6478   -4.6104    0.0000 C   0  0  0  0  0  0  0  0  0  0  0  0
    2.5712   -5.3957    0.0000 C   0  0  0  0  0  0  0  0  0  0  0  0
    1.3553   -4.8511    0.0000 C   0  0  0  0  0  0  0  0  0  0  0  0
    1.2159   -3.5338    0.0000 C   0  0  0  0  0  0  0  0  0  0  0  0
    0.0000   -2.9892    0.0000 C   0  0  0  0  0  0  0  0  0  0  0  0
  1  9  2  0  0  0  0
  1  3  1  0  0  0  0
  2 10  1  0  0  0  0
  2  3  2  0  0  0  0
  2  7  1  0  0  0  0
  3  6  1  0  0  0  0
  4  5  1  0  0  0  0
  4  6  2  0  0  0  0
  5  7  2  0  0  0  0
  5  8  1  0  0  0  0
  9 10  1  0  0  0  0
  9 14  1  0  0  0  0
 10 11  1  0  0  0  0
 11 12  2  0  0  0  0
 12 13  1  0  0  0  0
 13 14  2  0  0  0  0
 14 15  1  0  0  0  0
M  END
>  <Substance ID> (iss2_462)
iss2_462

>  <FW_iss2> (iss2_462)
198.2

>  <Canc_iss2> (iss2_462)
3.0

>  <ChemName_iss2> (iss2_462)
Glu-P-1

>  <SMILES_iss2> (iss2_462)
n3c1c(nc2c(cccn12)C)ccc3N

>  <SAL_iss2> (iss2_462)
3

>  <CAS_iss2> (iss2_462)
67730-11-4

>  <Formula_iss2> (iss2_462)
C11H10N4

$$$$
iss2_474


 18 20  0  0  0  0  0  0  0  0999 V2000
    3.5651   -0.2537    0.0000 C   0  0  0  0  0  0  0  0  0  0  0  0
    2.2964   -0.6597    0.0000 C   0  0  0  0  0  0  0  0  0  0  0  0
    2.2964   -1.9919    0.0000 C   0  0  0  0  0  0  0  0  0  0  0  0
    0.0000   -1.9919    0.0000 C   0  0  0  0  0  0  0  0  0  0  0  0
    0.0000   -0.6597    0.0000 C   0  0  0  0  0  0  0  0  0  0  0  0
    1.1545   -2.6643    0.0000 C   0  0  0  0  0  0  0  0  0  0  0  0
    1.1545   -0.0000    0.0000 C   0  0  0  0  0  0  0  0  0  0  0  0
    3.5651   -2.4106    0.0000 C   0  0  0  0  0  0  0  0  0  0  0  0
    4.3518   -1.3322    0.0000 C   0  0  0  0  0  0  0  0  0  0  0  0
    6.2168   -2.6770    0.0000 C   0  0  0  0  0  0  0  0  0  0  0  0
    5.4302   -3.7555    0.0000 C   0  0  0  0  0  0  0  0  0  0  0  0
    5.6712   -1.4717    0.0000 C   0  0  0  0  0  0  0  0  0  0  0  0
    4.1107   -3.6159    0.0000 C   0  0  0  0  0  0  0  0  0  0  0  0
    7.5490   -2.8166    0.0000 N   0  0  0  0  0  0  0  0  0  0  0  0
    8.3229   -1.7382    0.0000 C   0  0  0  0  0  0  0  0  0  0  0  0
    8.0818   -4.0346    0.0000 O   0  0  0  0  0  0  0  0  0  0  0  0
    9.6551   -1.8777    0.0000 C   0  0  0  0  0  0  0  0  0  0  0  0
    7.7900   -0.5329    0.0000 O   0  0  0  0  0  0  0  0  0  0  0  0
  1  2  1  0  0  0  0
  1  9  1  0  0  0  0
  2  3  2  0  0  0  0
  2  7  1  0  0  0  0
  3  8  1  0  0  0  0
  3  6  1  0  0  0  0
  4  5  1  0  0  0  0
  4  6  2  0  0  0  0
  5  7  2  0  0  0  0
  8  9  2  0  0  0  0
  8 13  1  0  0  0  0
  9 12  1  0  0  0  0
 10 11  1  0  0  0  0
 10 12  2  0  0  0  0
 10 14  1  0  0  0  0
 11 13  2  0  0  0  0
 14 15  1  0  0  0  0
 14 16  1  0  0  0  0
 15 17  1  0  0  0  0
 15 18  2  0  0  0  0
M  END
>  <Substance ID> (iss2_474)
iss2_474

>  <FW_iss2> (iss2_474)
239.3

>  <Canc_iss2> (iss2_474)
3.0

>  <ChemName_iss2> (iss2_474)
N-hydroxy-2-acetylaminofluorene

>  <SMILES_iss2> (iss2_474)
CC(=O)N(O)C1=CC2=C(C=C1)C3=CC=CC=C3C2

>  <SAL_iss2> (iss2_474)
3

>  <CAS_iss2> (iss2_474)
53-95-2

>  <Formula_iss2> (iss2_474)
C15H13NO2

$$$$
iss2_476


 14 15  0  0  0  0  0  0  0  0999 V2000
    5.7258   -2.0648    0.0000 C   0  0  0  0  0  0  0  0  0  0  0  0
    6.2705   -0.8487    0.0000 S   0  0  0  0  0  0  0  0  0  0  0  0
    7.5880   -0.9881    0.0000 C   0  0  0  0  0  0  0  0  0  0  0  0
    7.8666   -2.2929    0.0000 N   0  0  0  0  0  0  0  0  0  0  0  0
    6.7139   -2.9516    0.0000 N   0  0  0  0  0  0  0  0  0  0  0  0
    3.4329   -1.4568    0.0000 O   0  0  0  0  0  0  0  0  0  0  0  0
    4.4210   -2.3435    0.0000 C   0  0  0  0  0  0  0  0  0  0  0  0
    3.8890   -3.5596    0.0000 C   0  0  0  0  0  0  0  0  0  0  0  0
    2.5589   -3.4203    0.0000 C   0  0  0  0  0  0  0  0  0  0  0  0
    2.2802   -2.1155    0.0000 C   0  0  0  0  0  0  0  0  0  0  0  0
    8.4874   -0.0000    0.0000 N   0  0  0  0  0  0  0  0  0  0  0  0
    1.0768   -1.5708    0.0000 N   0  3  0  0  0  0  0  0  0  0  0  0
    0.9374   -0.2534    0.0000 O   0  5  0  0  0  0  0  0  0  0  0  0
    0.0000   -2.3562    0.0000 O   0  0  0  0  0  0  0  0  0  0  0  0
  1  2  1  0  0  0  0
  1  5  2  0  0  0  0
  1  7  1  0  0  0  0
  2  3  1  0  0  0  0
  3  4  2  0  0  0  0
  3 11  1  0  0  0  0
  4  5  1  0  0  0  0
  6  7  1  0  0  0  0
  6 10  1  0  0  0  0
  7  8  2  0  0  0  0
  8  9  1  0  0  0  0
  9 10  2  0  0  0  0
 10 12  1  0  0  0  0
 12 13  1  0  0  0  0
 12 14  2  0  0  0  0
M  CHG  2  12   1  13  -1
M  END
>  <Substance ID> (iss2_476)
iss2_476

>  <FW_iss2> (iss2_476)
212.2

>  <Canc_iss2> (iss2_476)
3.0

>  <ChemName_iss2> (iss2_476)
2-Amino-5-(5-nitro-2-furyl)-1,3,4-thiadiazole

>  <SMILES_iss2> (iss2_476)
[O-][N+](=O)c2oc(c1nnc(s1)N)cc2

>  <SAL_iss2> (iss2_476)
ND

>  <CAS_iss2> (iss2_476)
712-68-5

>  <Formula_iss2> (iss2_476)
C6H4N4O3S

$$$$
iss2_577


  8  8  0  0  0  0  0  0  0  0999 V2000
    2.3038   -0.0000    0.0000 C   0  0  0  0  0  0  0  0  0  0  0  0
    3.4558   -0.6582    0.0000 C   0  0  0  0  0  0  0  0  0  0  0  0
    2.3038   -2.6583    0.0000 C   0  0  0  0  0  0  0  0  0  0  0  0
    1.1519   -1.9874    0.0000 C   0  0  0  0  0  0  0  0  0  0  0  0
    3.4558   -1.9874    0.0000 C   0  0  0  0  0  0  0  0  0  0  0  0
    1.1519   -0.6582    0.0000 C   0  0  0  0  0  0  0  0  0  0  0  0
    0.0000   -2.6583    0.0000 N   0  0  0  0  0  0  0  0  0  0  0  0
    2.3038   -3.9874    0.0000 N   0  0  0  0  0  0  0  0  0  0  0  0
  1  2  2  0  0  0  0
  1  6  1  0  0  0  0
  2  5  1  0  0  0  0
  3  4  1  0  0  0  0
  3  5  2  0  0  0  0
  3  8  1  0  0  0  0
  4  6  2  0  0  0  0
  4  7  1  0  0  0  0
M  END
>  <Substance ID> (iss2_577)
iss2_577

>  <FW_iss2> (iss2_577)
108.1

>  <Canc_iss2> (iss2_577)
3.0

>  <ChemName_iss2> (iss2_577)
o-Phenylenediamine Dihydrochloride

>  <SMILES_iss2> (iss2_577)
C1(=C(C=CC=C1)N)N

>  <SAL_iss2> (iss2_577)
3

>  <CAS_iss2> (iss2_577)
615-28-1

>  <Formula_iss2> (iss2_577)
C6H8N2

$$$$
iss2_605


 16 17  0  0  0  0  0  0  0  0999 V2000
    1.3296   -1.1523    0.0000 C   0  0  0  0  0  0  0  0  0  0  0  0
    1.9880   -0.0000    0.0000 C   0  0  0  0  0  0  0  0  0  0  0  0
    3.9887   -1.1523    0.0000 C   0  0  0  0  0  0  0  0  0  0  0  0
    3.3176   -2.3046    0.0000 C   0  0  0  0  0  0  0  0  0  0  0  0
    3.3176   -0.0000    0.0000 C   0  0  0  0  0  0  0  0  0  0  0  0
    1.9880   -2.3046    0.0000 C   0  0  0  0  0  0  0  0  0  0  0  0
    0.0000   -1.1523    0.0000 N   0  0  0  0  0  0  0  0  0  0  0  0
    1.3296   -3.4569    0.0000 N   0  0  0  0  0  0  0  0  0  0  0  0
    5.3182   -1.1523    0.0000 C   0  0  0  0  0  0  0  0  0  0  0  0
    5.9767   -0.0000    0.0000 C   0  0  0  0  0  0  0  0  0  0  0  0
    7.9774   -1.1523    0.0000 C   0  0  0  0  0  0  0  0  0  0  0  0
    7.3062   -2.3046    0.0000 C   0  0  0  0  0  0  0  0  0  0  0  0
    7.3062   -0.0000    0.0000 C   0  0  0  0  0  0  0  0  0  0  0  0
    5.9767   -2.3046    0.0000 C   0  0  0  0  0  0  0  0  0  0  0  0
    7.9774   -3.4569    0.0000 N   0  0  0  0  0  0  0  0  0  0  0  0
    9.3069   -1.1523    0.0000 N   0  0  0  0  0  0  0  0  0  0  0  0
  1  2  2  0  0  0  0
  1  6  1  0  0  0  0
  1  7  1  0  0  0  0
  2  5  1  0  0  0  0
  3  4  1  0  0  0  0
  3  5  2  0  0  0  0
  3  9  1  0  0  0  0
  4  6  2  0  0  0  0
  6  8  1  0  0  0  0
  9 10  2  0  0  0  0
  9 14  1  0  0  0  0
 10 13  1  0  0  0  0
 11 12  1  0  0  0  0
 11 13  2  0  0  0  0
 11 16  1  0  0  0  0
 12 14  2  0  0  0  0
 12 15  1  0  0  0  0
M  END
>  <Substance ID> (iss2_605)
iss2_605

>  <FW_iss2> (iss2_605)
214.3

>  <Canc_iss2> (iss2_605)
3.0

>  <ChemName_iss2> (iss2_605)
3,3',4,4'-Tetraaminobiphenyl Tetrahydrochloride

>  <SMILES_iss2> (iss2_605)
Nc1ccc(cc1N)c2ccc(N)c(N)c2

>  <SAL_iss2> (iss2_605)
ND

>  <CAS_iss2> (iss2_605)
7411-49-6

>  <Formula_iss2> (iss2_605)
C12H14N4

$$$$
iss2_624


 14 14  0  0  0  0  0  0  0  0999 V2000
    3.4571   -0.6585    0.0000 C   0  0  0  0  0  0  0  0  0  0  0  0
    4.6094   -0.0000    0.0000 N   0  0  0  0  0  0  0  0  0  0  0  0
    5.7618   -0.6585    0.0000 C   0  0  0  0  0  0  0  0  0  0  0  0
    1.1524   -0.6585    0.0000 C   0  0  0  0  0  0  0  0  0  0  0  0
    1.1524   -1.9881    0.0000 C   0  0  0  0  0  0  0  0  0  0  0  0
    3.4571   -1.9881    0.0000 C   0  0  0  0  0  0  0  0  0  0  0  0
    2.3047   -2.6593    0.0000 C   0  0  0  0  0  0  0  0  0  0  0  0
    2.3047   -0.0000    0.0000 C   0  0  0  0  0  0  0  0  0  0  0  0
    0.0000   -2.6593    0.0000 N   0  0  0  0  0  0  0  0  0  0  0  0
    6.9141   -0.0000    0.0000 C   0  0  0  0  0  0  0  0  0  0  0  0
    8.0665   -0.6585    0.0000 O   0  0  0  0  0  0  0  0  0  0  0  0
    4.6094   -2.6593    0.0000 N   0  3  0  0  0  0  0  0  0  0  0  0
    4.6094   -3.9889    0.0000 O   0  5  0  0  0  0  0  0  0  0  0  0
    5.7618   -1.9881    0.0000 O   0  0  0  0  0  0  0  0  0  0  0  0
  1  2  1  0  0  0  0
  1  6  1  0  0  0  0
  1  8  2  0  0  0  0
  2  3  1  0  0  0  0
  3 10  1  0  0  0  0
  4  5  2  0  0  0  0
  4  8  1  0  0  0  0
  5  7  1  0  0  0  0
  5  9  1  0  0  0  0
  6  7  2  0  0  0  0
  6 12  1  0  0  0  0
 10 11  1  0  0  0  0
 12 13  1  0  0  0  0
 12 14  2  0  0  0  0
M  CHG  2  12   1  13  -1
M  END
>  <Substance ID> (iss2_624)
iss2_624

>  <FW_iss2> (iss2_624)
197.2

>  <Canc_iss2> (iss2_624)
2.0

>  <ChemName_iss2> (iss2_624)
HC Red no. 3

>  <SMILES_iss2> (iss2_624)
C1(=C(C=C(N)C=C1)[N+](=O)[O-])NCCO

>  <SAL_iss2> (iss2_624)
3

>  <CAS_iss2> (iss2_624)
2871-01-4

>  <Formula_iss2> (iss2_624)
C8H11N3O3

$$$$
iss2_632


  8  8  0  0  0  0  0  0  0  0999 V2000
    2.3047   -2.0008    0.0000 C   0  0  0  0  0  0  0  0  0  0  0  0
    2.3047   -3.3304    0.0000 C   0  0  0  0  0  0  0  0  0  0  0  0
    0.0000   -3.3304    0.0000 C   0  0  0  0  0  0  0  0  0  0  0  0
    0.0000   -2.0008    0.0000 C   0  0  0  0  0  0  0  0  0  0  0  0
    1.1523   -3.9889    0.0000 C   0  0  0  0  0  0  0  0  0  0  0  0
    1.1523   -1.3296    0.0000 C   0  0  0  0  0  0  0  0  0  0  0  0
    1.1523   -0.0000    0.0000 C   0  0  0  0  0  0  0  0  0  0  0  0
    1.1523   -5.3185    0.0000 N   0  0  0  0  0  0  0  0  0  0  0  0
  1  2  2  0  0  0  0
  1  6  1  0  0  0  0
  2  5  1  0  0  0  0
  3  4  1  0  0  0  0
  3  5  2  0  0  0  0
  4  6  2  0  0  0  0
  5  8  1  0  0  0  0
  6  7  1  0  0  0  0
M  END
>  <Substance ID> (iss2_632)
iss2_632

>  <FW_iss2> (iss2_632)
107.2

>  <Canc_iss2> (iss2_632)
3.0

>  <ChemName_iss2> (iss2_632)
p-Toluidine Hydrochloride

>  <SMILES_iss2> (iss2_632)
C1(=CC=C(N)C=C1)C

>  <SAL_iss2> (iss2_632)
3

>  <CAS_iss2> (iss2_632)
540-23-8

>  <Formula_iss2> (iss2_632)
C7H9N

$$$$
iss2_637


 11 11  0  0  0  0  0  0  0  0999 V2000
    3.9866   -2.3034    0.0000 C   0  0  0  0  0  0  0  0  0  0  0  0
    3.3285   -3.4551    0.0000 C   0  0  0  0  0  0  0  0  0  0  0  0
    1.3289   -2.3034    0.0000 C   0  0  0  0  0  0  0  0  0  0  0  0
    1.9996   -1.1517    0.0000 C   0  0  0  0  0  0  0  0  0  0  0  0
    1.9996   -3.4551    0.0000 C   0  0  0  0  0  0  0  0  0  0  0  0
    3.3285   -1.1517    0.0000 C   0  0  0  0  0  0  0  0  0  0  0  0
    3.9866   -0.0000    0.0000 O   0  0  0  0  0  0  0  0  0  0  0  0
    1.3289   -0.0000    0.0000 N   0  0  0  0  0  0  0  0  0  0  0  0
    1.3289   -4.6068    0.0000 N   0  3  0  0  0  0  0  0  0  0  0  0
    0.0000   -4.6068    0.0000 O   0  5  0  0  0  0  0  0  0  0  0  0
    1.9996   -5.7585    0.0000 O   0  0  0  0  0  0  0  0  0  0  0  0
  1  2  2  0  0  0  0
  1  6  1  0  0  0  0
  2  5  1  0  0  0  0
  3  4  1  0  0  0  0
  3  5  2  0  0  0  0
  4  6  2  0  0  0  0
  4  8  1  0  0  0  0
  5  9  1  0  0  0  0
  6  7  1  0  0  0  0
  9 10  1  0  0  0  0
  9 11  2  0  0  0  0
M  CHG  2   9   1  10  -1
M  END
>  <Substance ID> (iss2_637)
iss2_637

>  <FW_iss2> (iss2_637)
154.1

>  <Canc_iss2> (iss2_637)
3.0

>  <ChemName_iss2> (iss2_637)
2-Amino-4-nitrophenol

>  <SMILES_iss2> (iss2_637)
O=[N+](C1=CC(=C(C=C1)O)N)[O-]

>  <SAL_iss2> (iss2_637)
3

>  <CAS_iss2> (iss2_637)
99-57-0

>  <Formula_iss2> (iss2_637)
C6H6N2O3

$$$$
iss2_642


  8  8  0  0  0  0  0  0  0  0999 V2000
    2.6605   -2.3057    0.0000 C   0  0  0  0  0  0  0  0  0  0  0  0
    1.9890   -3.4586    0.0000 C   0  0  0  0  0  0  0  0  0  0  0  0
    0.0000   -2.3057    0.0000 C   0  0  0  0  0  0  0  0  0  0  0  0
    0.6588   -1.1529    0.0000 C   0  0  0  0  0  0  0  0  0  0  0  0
    0.6588   -3.4586    0.0000 C   0  0  0  0  0  0  0  0  0  0  0  0
    1.9890   -1.1529    0.0000 C   0  0  0  0  0  0  0  0  0  0  0  0
    0.0000   -0.0000    0.0000 C   0  0  0  0  0  0  0  0  0  0  0  0
    0.0000   -4.6115    0.0000 N   0  0  0  0  0  0  0  0  0  0  0  0
  1  2  2  0  0  0  0
  1  6  1  0  0  0  0
  2  5  1  0  0  0  0
  3  4  1  0  0  0  0
  3  5  2  0  0  0  0
  4  6  2  0  0  0  0
  4  7  1  0  0  0  0
  5  8  1  0  0  0  0
M  END
>  <Substance ID> (iss2_642)
iss2_642

>  <FW_iss2> (iss2_642)
107.2

>  <Canc_iss2> (iss2_642)
3.0

>  <ChemName_iss2> (iss2_642)
m-Toluidine hydrochloride

>  <SMILES_iss2> (iss2_642)
C1=C(C=CC=C1N)C

>  <SAL_iss2> (iss2_642)
1

>  <CAS_iss2> (iss2_642)
638-03-9

>  <Formula_iss2> (iss2_642)
C7H9N

$$$$
iss2_653


 18 19  0  0  0  0  0  0  0  0999 V2000
    5.3184   -2.3046    0.0000 C   0  0  0  0  0  0  0  0  0  0  0  0
    5.9896   -1.1523    0.0000 C   0  0  0  0  0  0  0  0  0  0  0  0
    7.9776   -2.3046    0.0000 C   0  0  0  0  0  0  0  0  0  0  0  0
    7.3192   -3.4570    0.0000 C   0  0  0  0  0  0  0  0  0  0  0  0
    7.3192   -1.1523    0.0000 C   0  0  0  0  0  0  0  0  0  0  0  0
    5.9896   -3.4570    0.0000 C   0  0  0  0  0  0  0  0  0  0  0  0
    1.3296   -2.3046    0.0000 C   0  0  0  0  0  0  0  0  0  0  0  0
    2.0007   -1.1523    0.0000 C   0  0  0  0  0  0  0  0  0  0  0  0
    3.9888   -2.3046    0.0000 C   0  0  0  0  0  0  0  0  0  0  0  0
    3.3303   -3.4570    0.0000 C   0  0  0  0  0  0  0  0  0  0  0  0
    3.3303   -1.1523    0.0000 C   0  0  0  0  0  0  0  0  0  0  0  0
    2.0007   -3.4570    0.0000 C   0  0  0  0  0  0  0  0  0  0  0  0
    0.0000   -2.3046    0.0000 N   0  0  0  0  0  0  0  0  0  0  0  0
    1.3296   -0.0000    0.0000 O   0  0  0  0  0  0  0  0  0  0  0  0
    0.0000   -0.0000    0.0000 C   0  0  0  0  0  0  0  0  0  0  0  0
    7.9776   -0.0000    0.0000 O   0  0  0  0  0  0  0  0  0  0  0  0
    9.3072   -0.0000    0.0000 C   0  0  0  0  0  0  0  0  0  0  0  0
    9.3072   -2.3046    0.0000 N   0  0  0  0  0  0  0  0  0  0  0  0
  1  2  2  0  0  0  0
  1  6  1  0  0  0  0
  1  9  1  0  0  0  0
  2  5  1  0  0  0  0
  3  4  1  0  0  0  0
  3  5  2  0  0  0  0
  3 18  1  0  0  0  0
  4  6  2  0  0  0  0
  5 16  1  0  0  0  0
  7  8  2  0  0  0  0
  7 12  1  0  0  0  0
  7 13  1  0  0  0  0
  8 11  1  0  0  0  0
  8 14  1  0  0  0  0
  9 10  1  0  0  0  0
  9 11  2  0  0  0  0
 10 12  2  0  0  0  0
 14 15  1  0  0  0  0
 16 17  1  0  0  0  0
M  END
>  <Substance ID> (iss2_653)
iss2_653

>  <FW_iss2> (iss2_653)
244.3

>  <Canc_iss2> (iss2_653)
3.0

>  <ChemName_iss2> (iss2_653)
3,3'-Dimethoxybenzidine Dihydrochloride

>  <SMILES_iss2> (iss2_653)
[Cl].NC1(=CC=C(C=C1OC)C2=CC=C(C(=C2)OC)N).[Cl]

>  <SAL_iss2> (iss2_653)
3

>  <CAS_iss2> (iss2_653)
20325-40-0

>  <Formula_iss2> (iss2_653)
C14H16N2O2

$$$$
iss2_691


 16 17  0  0  0  0  0  0  0  0999 V2000
    1.3296   -2.3046    0.0000 C   0  0  0  0  0  0  0  0  0  0  0  0
    1.9880   -1.1523    0.0000 C   0  0  0  0  0  0  0  0  0  0  0  0
    3.9887   -2.3046    0.0000 C   0  0  0  0  0  0  0  0  0  0  0  0
    3.3176   -3.4569    0.0000 C   0  0  0  0  0  0  0  0  0  0  0  0
    3.3176   -1.1523    0.0000 C   0  0  0  0  0  0  0  0  0  0  0  0
    1.9880   -3.4569    0.0000 C   0  0  0  0  0  0  0  0  0  0  0  0
    5.3182   -2.3046    0.0000 C   0  0  0  0  0  0  0  0  0  0  0  0
    5.9767   -1.1523    0.0000 C   0  0  0  0  0  0  0  0  0  0  0  0
    7.9774   -2.3046    0.0000 C   0  0  0  0  0  0  0  0  0  0  0  0
    7.3062   -3.4569    0.0000 C   0  0  0  0  0  0  0  0  0  0  0  0
    7.3062   -1.1523    0.0000 C   0  0  0  0  0  0  0  0  0  0  0  0
    5.9767   -3.4569    0.0000 C   0  0  0  0  0  0  0  0  0  0  0  0
    1.3296   -0.0000    0.0000 C   0  0  0  0  0  0  0  0  0  0  0  0
    0.0000   -2.3046    0.0000 N   0  0  0  0  0  0  0  0  0  0  0  0
    7.9774   -0.0000    0.0000 C   0  0  0  0  0  0  0  0  0  0  0  0
    9.3069   -2.3046    0.0000 N   0  0  0  0  0  0  0  0  0  0  0  0
  1  2  2  0  0  0  0
  1  6  1  0  0  0  0
  1 14  1  0  0  0  0
  2  5  1  0  0  0  0
  2 13  1  0  0  0  0
  3  4  1  0  0  0  0
  3  5  2  0  0  0  0
  3  7  1  0  0  0  0
  4  6  2  0  0  0  0
  7  8  2  0  0  0  0
  7 12  1  0  0  0  0
  8 11  1  0  0  0  0
  9 10  1  0  0  0  0
  9 11  2  0  0  0  0
  9 16  1  0  0  0  0
 10 12  2  0  0  0  0
 11 15  1  0  0  0  0
M  END
>  <Substance ID> (iss2_691)
iss2_691

>  <FW_iss2> (iss2_691)
212.3

>  <Canc_iss2> (iss2_691)
3.0

>  <ChemName_iss2> (iss2_691)
3,3'-Dimethylbenzidine Dihydrochloride

>  <SMILES_iss2> (iss2_691)
C1(C2=CC(=C(N)C=C2)C)(=CC(=C(N)C=C1)C)

>  <SAL_iss2> (iss2_691)
3

>  <CAS_iss2> (iss2_691)
612-82-8

>  <Formula_iss2> (iss2_691)
C14H16N2

$$$$
iss2_721


 12 12  0  0  0  0  0  0  0  0999 V2000
    3.4586   -2.6605    0.0000 C   0  0  0  0  0  0  0  0  0  0  0  0
    1.1529   -2.6605    0.0000 C   0  0  0  0  0  0  0  0  0  0  0  0
    1.1529   -3.9907    0.0000 C   0  0  0  0  0  0  0  0  0  0  0  0
    2.3057   -4.6495    0.0000 C   0  0  0  0  0  0  0  0  0  0  0  0
    3.4586   -3.9907    0.0000 C   0  0  0  0  0  0  0  0  0  0  0  0
    2.3057   -1.9890    0.0000 C   0  0  0  0  0  0  0  0  0  0  0  0
    4.6115   -4.6495    0.0000 N   0  0  0  0  0  0  0  0  0  0  0  0
    2.3057   -0.6588    0.0000 C   0  0  0  0  0  0  0  0  0  0  0  0
    3.4586   -0.0000    0.0000 O   0  0  0  0  0  0  0  0  0  0  0  0
    4.6115   -1.9890    0.0000 Cl  0  0  0  0  0  0  0  0  0  0  0  0
    1.1529   -0.0000    0.0000 O   0  0  0  0  0  0  0  0  0  0  0  0
    0.0000   -4.6495    0.0000 Cl  0  0  0  0  0  0  0  0  0  0  0  0
  1  5  1  0  0  0  0
  1  6  2  0  0  0  0
  1 10  1  0  0  0  0
  2  3  2  0  0  0  0
  2  6  1  0  0  0  0
  3  4  1  0  0  0  0
  3 12  1  0  0  0  0
  4  5  2  0  0  0  0
  5  7  1  0  0  0  0
  6  8  1  0  0  0  0
  8  9  1  0  0  0  0
  8 11  2  0  0  0  0
M  END
>  <Substance ID> (iss2_721)
iss2_721

>  <FW_iss2> (iss2_721)
206.0

>  <Canc_iss2> (iss2_721)
3.0

>  <ChemName_iss2> (iss2_721)
Chloramben

>  <SMILES_iss2> (iss2_721)
ClC1=C(C=C(C=C1C(=O)O)Cl)N

>  <SAL_iss2> (iss2_721)
3

>  <CAS_iss2> (iss2_721)
133-90-4

>  <Formula_iss2> (iss2_721)
C7H5Cl2NO2

$$$$
iss2_725


 17 18  0  0  0  0  0  0  0  0999 V2000
    7.3193   -4.5967    0.0000 N   0  0  0  0  0  0  0  0  0  0  0  0
    5.9896   -4.5967    0.0000 C   0  0  0  0  0  0  0  0  0  0  0  0
    5.3185   -3.4444    0.0000 C   0  0  0  0  0  0  0  0  0  0  0  0
    5.9896   -2.2920    0.0000 C   0  0  0  0  0  0  0  0  0  0  0  0
    7.3193   -2.2920    0.0000 N   0  0  0  0  0  0  0  0  0  0  0  0
    7.9777   -3.4444    0.0000 C   0  0  0  0  0  0  0  0  0  0  0  0
    2.0008   -2.2920    0.0000 C   0  0  0  0  0  0  0  0  0  0  0  0
    3.3304   -2.2920    0.0000 C   0  0  0  0  0  0  0  0  0  0  0  0
    3.9889   -3.4444    0.0000 C   0  0  0  0  0  0  0  0  0  0  0  0
    3.3304   -4.5967    0.0000 C   0  0  0  0  0  0  0  0  0  0  0  0
    2.0008   -4.5967    0.0000 C   0  0  0  0  0  0  0  0  0  0  0  0
    1.3296   -3.4444    0.0000 C   0  0  0  0  0  0  0  0  0  0  0  0
    0.0000   -3.4444    0.0000 Cl  0  0  0  0  0  0  0  0  0  0  0  0
    5.3185   -1.1523    0.0000 C   0  0  0  0  0  0  0  0  0  0  0  0
    5.9896   -0.0000    0.0000 C   0  0  0  0  0  0  0  0  0  0  0  0
    9.3074   -3.4444    0.0000 N   0  0  0  0  0  0  0  0  0  0  0  0
    5.3185   -5.7490    0.0000 N   0  0  0  0  0  0  0  0  0  0  0  0
  1  2  2  0  0  0  0
  1  6  1  0  0  0  0
  2  3  1  0  0  0  0
  2 17  1  0  0  0  0
  3  4  2  0  0  0  0
  3  9  1  0  0  0  0
  4  5  1  0  0  0  0
  4 14  1  0  0  0  0
  5  6  2  0  0  0  0
  6 16  1  0  0  0  0
  7  8  2  0  0  0  0
  7 12  1  0  0  0  0
  8  9  1  0  0  0  0
  9 10  2  0  0  0  0
 10 11  1  0  0  0  0
 11 12  2  0  0  0  0
 12 13  1  0  0  0  0
 14 15  1  0  0  0  0
M  END
>  <Substance ID> (iss2_725)
iss2_725

>  <FW_iss2> (iss2_725)
248.7

>  <Canc_iss2> (iss2_725)
1.0

>  <ChemName_iss2> (iss2_725)
Pyrimethamine

>  <SMILES_iss2> (iss2_725)
NC1=C(C(=NC(=N1)N)CC)C2=CC=C(C=C2)Cl

>  <SAL_iss2> (iss2_725)
1

>  <CAS_iss2> (iss2_725)
58-14-0

>  <Formula_iss2> (iss2_725)
C12H13ClN4

$$$$
iss2_749


 14 16  0  0  0  0  0  0  0  0999 V2000
    0.6591   -2.3069    0.0000 C   0  0  0  0  0  0  0  0  0  0  0  0
    1.9900   -0.0000    0.0000 C   0  0  0  0  0  0  0  0  0  0  0  0
    0.6591   -0.0000    0.0000 C   0  0  0  0  0  0  0  0  0  0  0  0
    0.0000   -1.1534    0.0000 C   0  0  0  0  0  0  0  0  0  0  0  0
    2.7505   -4.6138    0.0000 C   0  0  0  0  0  0  0  0  0  0  0  0
    3.8279   -5.3997    0.0000 C   0  0  0  0  0  0  0  0  0  0  0  0
    5.0321   -4.8546    0.0000 C   0  0  0  0  0  0  0  0  0  0  0  0
    5.1715   -3.5364    0.0000 N   0  0  0  0  0  0  0  0  0  0  0  0
    6.1095   -5.6405    0.0000 N   0  0  0  0  0  0  0  0  0  0  0  0
    2.6618   -1.1534    0.0000 C   0  0  0  0  0  0  0  0  0  0  0  0
    1.9900   -2.3069    0.0000 C   0  0  0  0  0  0  0  0  0  0  0  0
    2.8900   -3.2956    0.0000 C   0  0  0  0  0  0  0  0  0  0  0  0
    4.0941   -2.7505    0.0000 C   0  0  0  0  0  0  0  0  0  0  0  0
    3.9674   -1.4323    0.0000 N   0  0  0  0  0  0  0  0  0  0  0  0
  1 11  2  0  0  0  0
  1  4  1  0  0  0  0
  2 10  2  0  0  0  0
  2  3  1  0  0  0  0
  3  4  2  0  0  0  0
  5 12  1  0  0  0  0
  5  6  2  0  0  0  0
  6  7  1  0  0  0  0
  7  8  2  0  0  0  0
  7  9  1  0  0  0  0
  8 13  1  0  0  0  0
 10 11  1  0  0  0  0
 10 14  1  0  0  0  0
 11 12  1  0  0  0  0
 12 13  2  0  0  0  0
 13 14  1  0  0  0  0
M  END
>  <Substance ID> (iss2_749)
iss2_749

>  <FW_iss2> (iss2_749)
183.2

>  <Canc_iss2> (iss2_749)
3.0

>  <ChemName_iss2> (iss2_749)
A-alpha-C

>  <SMILES_iss2> (iss2_749)
n2c(ccc3c1c(cccc1)nc23)N

>  <SAL_iss2> (iss2_749)
3

>  <CAS_iss2> (iss2_749)
26148-68-5

>  <Formula_iss2> (iss2_749)
C11H9N3

$$$$
iss2_755


 17 18  0  0  0  0  0  0  0  0999 V2000
    5.3189   -2.3048    0.0000 C   0  0  0  0  0  0  0  0  0  0  0  0
    5.9901   -1.1524    0.0000 C   0  0  0  0  0  0  0  0  0  0  0  0
    2.0009   -5.7621    0.0000 C   0  0  0  0  0  0  0  0  0  0  0  0
    1.3297   -4.6097    0.0000 C   0  0  0  0  0  0  0  0  0  0  0  0
    2.0009   -3.4573    0.0000 C   0  0  0  0  0  0  0  0  0  0  0  0
    3.3306   -3.4573    0.0000 C   0  0  0  0  0  0  0  0  0  0  0  0
    3.9892   -4.6097    0.0000 C   0  0  0  0  0  0  0  0  0  0  0  0
    3.3306   -5.7621    0.0000 C   0  0  0  0  0  0  0  0  0  0  0  0
    1.3297   -6.9145    0.0000 N   0  0  0  0  0  0  0  0  0  0  0  0
    0.0000   -4.6097    0.0000 C   0  0  0  0  0  0  0  0  0  0  0  0
    3.9892   -2.3048    0.0000 C   0  0  0  0  0  0  0  0  0  0  0  0
    7.3198   -1.1524    0.0000 C   0  0  0  0  0  0  0  0  0  0  0  0
    7.9783   -0.0000    0.0000 C   0  0  0  0  0  0  0  0  0  0  0  0
    9.3080   -2.3048    0.0000 N   0  0  0  0  0  0  0  0  0  0  0  0
    5.9901   -3.4573    0.0000 C   0  0  0  0  0  0  0  0  0  0  0  0
    7.3198   -3.4573    0.0000 C   0  0  0  0  0  0  0  0  0  0  0  0
    7.9783   -2.3048    0.0000 C   0  0  0  0  0  0  0  0  0  0  0  0
  1  2  2  0  0  0  0
  1 11  1  0  0  0  0
  1 15  1  0  0  0  0
  2 12  1  0  0  0  0
  3  4  2  0  0  0  0
  3  8  1  0  0  0  0
  3  9  1  0  0  0  0
  4  5  1  0  0  0  0
  4 10  1  0  0  0  0
  5  6  2  0  0  0  0
  6  7  1  0  0  0  0
  6 11  1  0  0  0  0
  7  8  2  0  0  0  0
 12 17  2  0  0  0  0
 12 13  1  0  0  0  0
 14 17  1  0  0  0  0
 15 16  2  0  0  0  0
 16 17  1  0  0  0  0
M  END
>  <Substance ID> (iss2_755)
iss2_755

>  <FW_iss2> (iss2_755)
226.3

>  <Canc_iss2> (iss2_755)
3.0

>  <ChemName_iss2> (iss2_755)
4,4'-Methylene-bis(2-methylaniline)

>  <SMILES_iss2> (iss2_755)
CC1=C(C=CC(=C1)CC2=CC(=C(C=C2)N)C)N

>  <SAL_iss2> (iss2_755)
3

>  <CAS_iss2> (iss2_755)
838-88-0

>  <Formula_iss2> (iss2_755)
C15H18N2

$$$$
iss2_788


 16 17  0  0  0  0  0  0  0  0999 V2000
    0.0000   -2.3415    0.0000 O   0  0  0  0  0  0  0  0  0  0  0  0
    0.4146   -1.0813    0.0000 N   0  0  0  0  0  0  0  0  0  0  0  0
    1.7398   -1.0813    0.0000 C   0  0  0  0  0  0  0  0  0  0  0  0
    2.1545   -2.3415    0.0000 N   0  0  0  0  0  0  0  0  0  0  0  0
    1.0732   -3.1219    0.0000 C   0  0  0  0  0  0  0  0  0  0  0  0
    1.0732   -4.4553    0.0000 N   0  0  0  0  0  0  0  0  0  0  0  0
    2.5203   -0.0000    0.0000 C   0  0  0  0  0  0  0  0  0  0  0  0
    3.8455   -0.1382    0.0000 C   0  0  0  0  0  0  0  0  0  0  0  0
    4.3902   -1.3577    0.0000 C   0  0  0  0  0  0  0  0  0  0  0  0
    5.6910   -1.6341    0.0000 O   0  0  0  0  0  0  0  0  0  0  0  0
    5.8292   -2.9593    0.0000 C   0  0  0  0  0  0  0  0  0  0  0  0
    4.6097   -3.4959    0.0000 C   0  0  0  0  0  0  0  0  0  0  0  0
    3.7236   -2.5122    0.0000 C   0  0  0  0  0  0  0  0  0  0  0  0
    6.9756   -3.6179    0.0000 N   0  3  0  0  0  0  0  0  0  0  0  0
    6.9756   -4.9512    0.0000 O   0  0  0  0  0  0  0  0  0  0  0  0
    8.1300   -2.9593    0.0000 O   0  5  0  0  0  0  0  0  0  0  0  0
  1  2  1  0  0  0  0
  1  5  1  0  0  0  0
  2  3  2  0  0  0  0
  3  4  1  0  0  0  0
  3  7  1  0  0  0  0
  4  5  2  0  0  0  0
  5  6  1  0  0  0  0
  7  8  2  0  0  0  0
  8  9  1  0  0  0  0
  9 10  1  0  0  0  0
  9 13  2  0  0  0  0
 10 11  1  0  0  0  0
 11 12  2  0  0  0  0
 11 14  1  0  0  0  0
 12 13  1  0  0  0  0
 14 15  2  0  0  0  0
 14 16  1  0  0  0  0
M  CHG  2  14   1  16  -1
M  END
>  <Substance ID> (iss2_788)
iss2_788

>  <FW_iss2> (iss2_788)
222.2

>  <Canc_iss2> (iss2_788)
3.0

>  <ChemName_iss2> (iss2_788)
trans-5-Amino-3[2-(5-nitro-2-furyl)vinyl]-1,2,4-oxadiazole

>  <SMILES_iss2> (iss2_788)
O1N=C(N=C1N)/C=C/C2OC(=CC=2)[N+](=O)[O-]

>  <SAL_iss2> (iss2_788)
ND

>  <CAS_iss2> (iss2_788)
28754-68-9

>  <Formula_iss2> (iss2_788)
C8H6N4O4

$$$$
iss2_796


 21 23  0  0  0  0  0  0  0  0999 V2000
    9.2113   -5.3241    0.0000 C   0  0  0  0  0  0  0  0  0  0  0  0
    8.0599   -5.9873    0.0000 C   0  0  0  0  0  0  0  0  0  0  0  0
    6.9085   -5.3241    0.0000 O   0  0  0  0  0  0  0  0  0  0  0  0
    5.7571   -5.9873    0.0000 C   0  0  0  0  0  0  0  0  0  0  0  0
    4.6056   -5.3241    0.0000 C   0  0  0  0  0  0  0  0  0  0  0  0
    4.6056   -3.9885    0.0000 C   0  0  0  0  0  0  0  0  0  0  0  0
    3.4542   -3.3253    0.0000 C   0  0  0  0  0  0  0  0  0  0  0  0
    3.4542   -1.9988    0.0000 N   0  0  0  0  0  0  0  0  0  0  0  0
    4.6056   -1.3356    0.0000 C   0  0  0  0  0  0  0  0  0  0  0  0
    4.6056   -0.0000    0.0000 N   0  0  0  0  0  0  0  0  0  0  0  0
    5.7571   -1.9988    0.0000 N   0  3  0  0  0  0  0  0  0  0  0  0
    7.0190   -1.5843    0.0000 N   0  0  0  0  0  0  0  0  0  0  0  0
    7.8020   -2.6621    0.0000 C   0  0  0  0  0  0  0  0  0  0  0  0
    7.0190   -3.7398    0.0000 N   0  0  0  0  0  0  0  0  0  0  0  0
    5.7571   -3.3253    0.0000 C   0  0  0  0  0  0  0  0  0  0  0  0
    2.3028   -3.9885    0.0000 C   0  0  0  0  0  0  0  0  0  0  0  0
    2.3028   -5.3241    0.0000 C   0  0  0  0  0  0  0  0  0  0  0  0
    1.1514   -5.9873    0.0000 C   0  0  0  0  0  0  0  0  0  0  0  0
    0.0000   -5.3241    0.0000 C   0  0  0  0  0  0  0  0  0  0  0  0
    0.0000   -3.9885    0.0000 C   0  0  0  0  0  0  0  0  0  0  0  0
    1.1514   -3.3253    0.0000 C   0  0  0  0  0  0  0  0  0  0  0  0
  1  2  1  0  0  0  0
  2  3  1  0  0  0  0
  3  4  1  0  0  0  0
  4  5  1  0  0  0  0
  5  6  1  0  0  0  0
  6  7  2  0  0  0  0
  6 15  1  0  0  0  0
  7  8  1  0  0  0  0
  7 16  1  0  0  0  0
  8  9  2  0  0  0  0
  9 10  1  0  0  0  0
  9 11  1  0  0  0  0
 11 12  1  0  0  0  0
 11 15  2  0  0  0  0
 12 13  1  0  0  0  0
 13 14  2  0  0  0  0
 14 15  1  0  0  0  0
 16 17  2  0  0  0  0
 16 21  1  0  0  0  0
 17 18  1  0  0  0  0
 18 19  2  0  0  0  0
 19 20  1  0  0  0  0
 20 21  2  0  0  0  0
M  CHG  1  11   1
M  END
>  <Substance ID> (iss2_796)
iss2_796

>  <FW_iss2> (iss2_796)
284.3

>  <Canc_iss2> (iss2_796)
3.0

>  <ChemName_iss2> (iss2_796)
Bemitradine

>  <SMILES_iss2> (iss2_796)
CCOCCC1=C(N=C(N)[N+]2NC=NC1=2)C3=CC=CC=C3

>  <SAL_iss2> (iss2_796)
1

>  <CAS_iss2> (iss2_796)
88133-11-3

>  <Formula_iss2> (iss2_796)
C15H18N5O

$$$$
iss2_799


 14 15  0  0  0  0  0  0  0  0999 V2000
    6.9132   -3.9889    0.0000 N   0  0  0  0  0  0  0  0  0  0  0  0
    5.7587   -3.3252    0.0000 C   0  0  0  0  0  0  0  0  0  0  0  0
    4.6111   -3.9889    0.0000 N   0  0  0  0  0  0  0  0  0  0  0  0
    3.4566   -3.3252    0.0000 C   0  0  0  0  0  0  0  0  0  0  0  0
    3.4566   -1.9979    0.0000 N   0  0  0  0  0  0  0  0  0  0  0  0
    4.6111   -1.3273    0.0000 C   0  0  0  0  0  0  0  0  0  0  0  0
    5.7587   -1.9979    0.0000 N   0  0  0  0  0  0  0  0  0  0  0  0
    4.6111   -0.0000    0.0000 N   0  0  0  0  0  0  0  0  0  0  0  0
    2.3021   -3.9889    0.0000 C   0  0  0  0  0  0  0  0  0  0  0  0
    2.3021   -5.3231    0.0000 C   0  0  0  0  0  0  0  0  0  0  0  0
    1.1545   -5.9868    0.0000 C   0  0  0  0  0  0  0  0  0  0  0  0
    0.0000   -5.3231    0.0000 C   0  0  0  0  0  0  0  0  0  0  0  0
    0.0000   -3.9889    0.0000 C   0  0  0  0  0  0  0  0  0  0  0  0
    1.1545   -3.3252    0.0000 C   0  0  0  0  0  0  0  0  0  0  0  0
  1  2  1  0  0  0  0
  2  3  2  0  0  0  0
  2  7  1  0  0  0  0
  3  4  1  0  0  0  0
  4  5  2  0  0  0  0
  4  9  1  0  0  0  0
  5  6  1  0  0  0  0
  6  7  2  0  0  0  0
  6  8  1  0  0  0  0
  9 10  2  0  0  0  0
  9 14  1  0  0  0  0
 10 11  1  0  0  0  0
 11 12  2  0  0  0  0
 12 13  1  0  0  0  0
 13 14  2  0  0  0  0
M  END
>  <Substance ID> (iss2_799)
iss2_799

>  <FW_iss2> (iss2_799)
187.2

>  <Canc_iss2> (iss2_799)
1.0

>  <ChemName_iss2> (iss2_799)
Benzoguanamine

>  <SMILES_iss2> (iss2_799)
NC1=NC(=NC(=N1)N)C2=CC=CC=C2

>  <SAL_iss2> (iss2_799)
1

>  <CAS_iss2> (iss2_799)
91-76-9

>  <Formula_iss2> (iss2_799)
C9H9N5

$$$$
iss2_839


 16 17  0  0  0  0  0  0  0  0999 V2000
    5.9868   -5.7587    0.0000 N   0  0  0  0  0  0  0  0  0  0  0  0
    4.6595   -5.7587    0.0000 C   0  0  0  0  0  0  0  0  0  0  0  0
    3.9889   -6.9132    0.0000 C   0  0  0  0  0  0  0  0  0  0  0  0
    2.6616   -6.9132    0.0000 C   0  0  0  0  0  0  0  0  0  0  0  0
    1.9979   -5.7587    0.0000 C   0  0  0  0  0  0  0  0  0  0  0  0
    2.6616   -4.6111    0.0000 C   0  0  0  0  0  0  0  0  0  0  0  0
    3.9889   -4.6111    0.0000 C   0  0  0  0  0  0  0  0  0  0  0  0
    0.6637   -5.7587    0.0000 N   0  0  0  0  0  0  0  0  0  0  0  0
    0.0000   -4.6111    0.0000 N   0  0  0  0  0  0  0  0  0  0  0  0
    0.6637   -3.4566    0.0000 C   0  0  0  0  0  0  0  0  0  0  0  0
    0.0000   -2.3021    0.0000 C   0  0  0  0  0  0  0  0  0  0  0  0
    0.6637   -1.1545    0.0000 C   0  0  0  0  0  0  0  0  0  0  0  0
    1.9979   -1.1545    0.0000 C   0  0  0  0  0  0  0  0  0  0  0  0
    2.6616   -2.3021    0.0000 C   0  0  0  0  0  0  0  0  0  0  0  0
    1.9979   -3.4566    0.0000 C   0  0  0  0  0  0  0  0  0  0  0  0
    2.6616   -0.0000    0.0000 N   0  0  0  0  0  0  0  0  0  0  0  0
  1  2  1  0  0  0  0
  2  3  2  0  0  0  0
  2  7  1  0  0  0  0
  3  4  1  0  0  0  0
  4  5  2  0  0  0  0
  5  6  1  0  0  0  0
  5  8  1  0  0  0  0
  6  7  2  0  0  0  0
  8  9  2  0  0  0  0
  9 10  1  0  0  0  0
 10 11  2  0  0  0  0
 10 15  1  0  0  0  0
 11 12  1  0  0  0  0
 12 13  2  0  0  0  0
 13 14  1  0  0  0  0
 13 16  1  0  0  0  0
 14 15  2  0  0  0  0
M  END
>  <Substance ID> (iss2_839)
iss2_839

>  <FW_iss2> (iss2_839)
212.3

>  <Canc_iss2> (iss2_839)
3.0

>  <ChemName_iss2> (iss2_839)
4,4'-Diaminoazobenzene

>  <SMILES_iss2> (iss2_839)
NC1=CC=C(C=C1)/N=N/C2=CC=C(C=C2)N

>  <SAL_iss2> (iss2_839)
3

>  <CAS_iss2> (iss2_839)
538-41-0

>  <Formula_iss2> (iss2_839)
C12H12N4

$$$$
iss2_840


 17 18  0  0  0  0  0  0  0  0999 V2000
    5.9755   -3.4565    0.0000 O   0  0  0  0  0  0  0  0  0  0  0  0
    5.3203   -2.3044    0.0000 C   0  0  0  0  0  0  0  0  0  0  0  0
    3.9874   -2.3044    0.0000 C   0  0  0  0  0  0  0  0  0  0  0  0
    3.3210   -3.4565    0.0000 C   0  0  0  0  0  0  0  0  0  0  0  0
    1.9881   -3.4565    0.0000 C   0  0  0  0  0  0  0  0  0  0  0  0
    1.3329   -2.3044    0.0000 C   0  0  0  0  0  0  0  0  0  0  0  0
    1.9881   -1.1522    0.0000 C   0  0  0  0  0  0  0  0  0  0  0  0
    3.3210   -1.1522    0.0000 C   0  0  0  0  0  0  0  0  0  0  0  0
    0.0000   -2.3044    0.0000 N   0  0  0  0  0  0  0  0  0  0  0  0
    5.9755   -1.1522    0.0000 N   0  0  0  0  0  0  0  0  0  0  0  0
    7.3084   -1.1522    0.0000 C   0  0  0  0  0  0  0  0  0  0  0  0
    7.9749   -0.0000    0.0000 C   0  0  0  0  0  0  0  0  0  0  0  0
    9.3078   -0.0000    0.0000 C   0  0  0  0  0  0  0  0  0  0  0  0
    9.9629   -1.1522    0.0000 C   0  0  0  0  0  0  0  0  0  0  0  0
    9.3078   -2.3044    0.0000 C   0  0  0  0  0  0  0  0  0  0  0  0
    7.9749   -2.3044    0.0000 C   0  0  0  0  0  0  0  0  0  0  0  0
   11.2959   -1.1522    0.0000 N   0  0  0  0  0  0  0  0  0  0  0  0
  1  2  2  0  0  0  0
  2  3  1  0  0  0  0
  2 10  1  0  0  0  0
  3  4  2  0  0  0  0
  3  8  1  0  0  0  0
  4  5  1  0  0  0  0
  5  6  2  0  0  0  0
  6  7  1  0  0  0  0
  6  9  1  0  0  0  0
  7  8  2  0  0  0  0
 10 11  1  0  0  0  0
 11 12  2  0  0  0  0
 11 16  1  0  0  0  0
 12 13  1  0  0  0  0
 13 14  2  0  0  0  0
 14 15  1  0  0  0  0
 14 17  1  0  0  0  0
 15 16  2  0  0  0  0
M  END
>  <Substance ID> (iss2_840)
iss2_840

>  <FW_iss2> (iss2_840)
227.3

>  <Canc_iss2> (iss2_840)
3.0

>  <ChemName_iss2> (iss2_840)
4,4'-Diaminobenzanilide

>  <SMILES_iss2> (iss2_840)
O=C(C1=CC=C(C=C1)N)NC2=CC=C(C=C2)N

>  <SAL_iss2> (iss2_840)
3

>  <CAS_iss2> (iss2_840)
785-30-8

>  <Formula_iss2> (iss2_840)
C13H13N3O

$$$$
iss2_865


 19 20  0  0  0  0  0  0  0  0999 V2000
    4.6060   -5.9878    0.0000 C   0  0  0  0  0  0  0  0  0  0  0  0
    3.4545   -5.3245    0.0000 C   0  0  0  0  0  0  0  0  0  0  0  0
    3.4545   -3.9888    0.0000 C   0  0  0  0  0  0  0  0  0  0  0  0
    2.3030   -3.3255    0.0000 C   0  0  0  0  0  0  0  0  0  0  0  0
    2.3030   -1.9990    0.0000 C   0  0  0  0  0  0  0  0  0  0  0  0
    3.4545   -1.3357    0.0000 C   0  0  0  0  0  0  0  0  0  0  0  0
    4.6060   -1.9990    0.0000 C   0  0  0  0  0  0  0  0  0  0  0  0
    4.6060   -3.3255    0.0000 C   0  0  0  0  0  0  0  0  0  0  0  0
    5.7575   -1.3357    0.0000 O   0  0  0  0  0  0  0  0  0  0  0  0
    5.7575   -0.0000    0.0000 C   0  0  0  0  0  0  0  0  0  0  0  0
    1.1515   -3.9888    0.0000 O   0  0  0  0  0  0  0  0  0  0  0  0
    0.0000   -3.3255    0.0000 C   0  0  0  0  0  0  0  0  0  0  0  0
    5.7575   -5.3245    0.0000 C   0  0  0  0  0  0  0  0  0  0  0  0
    6.9090   -5.9878    0.0000 C   0  0  0  0  0  0  0  0  0  0  0  0
    8.0605   -5.3245    0.0000 C   0  0  0  0  0  0  0  0  0  0  0  0
    8.0605   -3.9888    0.0000 C   0  0  0  0  0  0  0  0  0  0  0  0
    6.9090   -3.3255    0.0000 C   0  0  0  0  0  0  0  0  0  0  0  0
    5.7575   -3.9888    0.0000 C   0  0  0  0  0  0  0  0  0  0  0  0
    9.2120   -3.3255    0.0000 N   0  0  0  0  0  0  0  0  0  0  0  0
  1  2  2  0  0  0  0
  1 13  1  0  0  0  0
  2  3  1  0  0  0  0
  3  4  1  0  0  0  0
  3  8  2  0  0  0  0
  4  5  2  0  0  0  0
  4 11  1  0  0  0  0
  5  6  1  0  0  0  0
  6  7  2  0  0  0  0
  7  8  1  0  0  0  0
  7  9  1  0  0  0  0
  9 10  1  0  0  0  0
 11 12  1  0  0  0  0
 13 14  1  0  0  0  0
 13 18  2  0  0  0  0
 14 15  2  0  0  0  0
 15 16  1  0  0  0  0
 16 17  2  0  0  0  0
 16 19  1  0  0  0  0
 17 18  1  0  0  0  0
M  END
>  <Substance ID> (iss2_865)
iss2_865

>  <FW_iss2> (iss2_865)
255.3

>  <Canc_iss2> (iss2_865)
3.0

>  <ChemName_iss2> (iss2_865)
2,5-Dimethoxy-4'-aminostilbene

>  <SMILES_iss2> (iss2_865)
C(=C/C1C(=CC=C(C=1)OC)OC)/C2C=CC(=CC=2)N

>  <SAL_iss2> (iss2_865)
ND

>  <CAS_iss2> (iss2_865)
5803-51-0

>  <Formula_iss2> (iss2_865)
C16H17NO2

$$$$
iss2_67


 30 30  0  0  1  0  0  0  0  0999 V2000
    5.7618   -4.6957    0.0000 C   0  0  0  0  0  0  0  0  0  0  0  0
    4.6069   -5.3684    0.0000 C   0  0  0  0  0  0  0  0  0  0  0  0
    3.4520   -4.6957    0.0000 C   0  0  0  0  0  0  0  0  0  0  0  0
    3.4520   -3.3632    0.0000 C   0  0  0  0  0  0  0  0  0  0  0  0
    4.6069   -2.7032    0.0000 C   0  0  0  0  0  0  0  0  0  0  0  0
    5.7618   -3.3632    0.0000 C   0  0  0  0  0  0  0  0  0  0  0  0
    6.9167   -2.7032    0.0000 C   0  0  0  0  0  0  0  0  0  0  0  0
    4.6069   -1.3706    0.0000 N   0  0  0  0  0  0  0  0  0  0  0  0
    3.4520   -0.6980    0.0000 C   0  0  0  0  0  0  0  0  0  0  0  0
    2.2971   -0.0381    0.0000 O   0  0  0  0  0  0  0  0  0  0  0  0
    2.2971   -5.3684    0.0000 N   0  0  0  0  0  0  0  0  0  0  0  0
    1.1549   -4.6957    0.0000 C   0  0  0  0  0  0  0  0  0  0  0  0
    0.0000   -4.0358    0.0000 O   0  0  0  0  0  0  0  0  0  0  0  0
    8.0716   -3.3632    0.0000 H   0  0  0  0  0  0  0  0  0  0  0  0
    6.9167   -1.3706    0.0000 H   0  0  0  0  0  0  0  0  0  0  0  0
   13.4272   -1.9925    0.0000 C   0  0  0  0  0  0  0  0  0  0  0  0
   13.4272   -0.6599    0.0000 C   0  0  0  0  0  0  0  0  0  0  0  0
   14.5821   -0.0000    0.0000 C   0  0  0  0  0  0  0  0  0  0  0  0
   15.7243   -0.6599    0.0000 C   0  0  0  0  0  0  0  0  0  0  0  0
   15.7243   -1.9925    0.0000 C   0  0  0  0  0  0  0  0  0  0  0  0
   14.5821   -2.6525    0.0000 C   0  0  0  0  0  0  0  0  0  0  0  0
   14.5821   -3.9723    0.0000 C   0  0  0  0  0  0  0  0  0  0  0  0
   16.8792   -2.6525    0.0000 N   0  0  0  0  0  0  0  0  0  0  0  0
   18.0341   -1.9925    0.0000 C   0  0  0  0  0  0  0  0  0  0  0  0
   19.1763   -1.3199    0.0000 O   0  0  0  0  0  0  0  0  0  0  0  0
   12.2850   -2.6525    0.0000 N   0  0  0  0  0  0  0  0  0  0  0  0
   11.1301   -1.9925    0.0000 C   0  0  0  0  0  0  0  0  0  0  0  0
    9.9752   -1.3199    0.0000 O   0  0  0  0  0  0  0  0  0  0  0  0
   13.4272   -4.6450    0.0000 H   0  0  0  0  0  0  0  0  0  0  0  0
   15.7243   -4.6450    0.0000 H   0  0  0  0  0  0  0  0  0  0  0  0
  1  2  2  0  0  0  0
  1  6  1  0  0  0  0
  2  3  1  0  0  0  0
  3  4  2  0  0  0  0
  3 11  1  0  0  0  0
  4  5  1  0  0  0  0
  5  6  2  0  0  0  0
  5  8  1  0  0  0  0
  6  7  1  0  0  0  0
  7 14  1  1  0  0  0
  7 15  1  6  0  0  0
  8  9  2  0  0  0  0
  9 10  2  0  0  0  0
 11 12  2  0  0  0  0
 12 13  2  0  0  0  0
 16 17  2  0  0  0  0
 16 21  1  0  0  0  0
 16 26  1  0  0  0  0
 17 18  1  0  0  0  0
 18 19  2  0  0  0  0
 19 20  1  0  0  0  0
 20 21  2  0  0  0  0
 20 23  1  0  0  0  0
 21 22  1  0  0  0  0
 22 29  1  1  0  0  0
 22 30  1  6  0  0  0
 23 24  2  0  0  0  0
 24 25  2  0  0  0  0
 26 27  2  0  0  0  0
 27 28  2  0  0  0  0
M  END
>  <Substance ID> (iss2_67)
iss2_67

>  <Molecular.Weight> (iss2_67)
348.3

>  <FW_iss2> (iss2_67)
348.3

>  <Parent.Atom.Count> (iss2_67)
26.0

>  <Parent.Molecular.Weight> (iss2_67)
348.3

>  <Rotatable.Bonds> (iss2_67)
4.0

>  <Hydrogen.Bond.Acceptors> (iss2_67)
8.0

>  <Canc_iss2> (iss2_67)
3.0

>  <Hydrogen.Bond.Donors> (iss2_67)
0.0

>  <ChemName_iss2> (iss2_67)
Toluene Diisocyanate 

>  <SMILES_iss2> (iss2_67)
O=C=N/c1ccc(c(/N=C=O)c1)[C@@H3].O=C=N/c1cccc(/N=C=O)c1[C@@H3]

>  <SAL_iss2> (iss2_67)
3

>  <CAS_iss2> (iss2_67)
26471-62-5

>  <Formula_iss2> (iss2_67)
C18H12N4O4

$$$$
iss2_183


 22 23  0  0  0  0  0  0  0  0999 V2000
    2.6591   -2.3045    0.0000 C   0  0  0  0  0  0  0  0  0  0  0  0
    3.3302   -1.1523    0.0000 C   0  0  0  0  0  0  0  0  0  0  0  0
    5.3182   -2.3045    0.0000 C   0  0  0  0  0  0  0  0  0  0  0  0
    4.6597   -3.4568    0.0000 C   0  0  0  0  0  0  0  0  0  0  0  0
    4.6597   -1.1523    0.0000 C   0  0  0  0  0  0  0  0  0  0  0  0
    3.3302   -3.4568    0.0000 C   0  0  0  0  0  0  0  0  0  0  0  0
    1.3295   -2.3045    0.0000 N   0  0  0  0  0  0  0  0  0  0  0  0
    2.6591   -0.0000    0.0000 O   0  0  0  0  0  0  0  0  0  0  0  0
    6.6477   -2.3045    0.0000 C   0  0  0  0  0  0  0  0  0  0  0  0
    7.3188   -1.1523    0.0000 C   0  0  0  0  0  0  0  0  0  0  0  0
    9.3068   -2.3045    0.0000 C   0  0  0  0  0  0  0  0  0  0  0  0
    8.6484   -3.4568    0.0000 C   0  0  0  0  0  0  0  0  0  0  0  0
    8.6484   -1.1523    0.0000 C   0  0  0  0  0  0  0  0  0  0  0  0
    7.3188   -3.4568    0.0000 C   0  0  0  0  0  0  0  0  0  0  0  0
   10.6363   -2.3045    0.0000 N   0  0  0  0  0  0  0  0  0  0  0  0
    9.3068   -0.0000    0.0000 O   0  0  0  0  0  0  0  0  0  0  0  0
    0.6711   -3.4568    0.0000 C   0  0  0  0  0  0  0  0  0  0  0  0
    0.0000   -4.6091    0.0000 O   0  0  0  0  0  0  0  0  0  0  0  0
   11.3075   -3.4568    0.0000 C   0  0  0  0  0  0  0  0  0  0  0  0
   11.9659   -4.6091    0.0000 O   0  0  0  0  0  0  0  0  0  0  0  0
    1.3295   -0.0000    0.0000 C   0  0  0  0  0  0  0  0  0  0  0  0
   10.6363   -0.0000    0.0000 C   0  0  0  0  0  0  0  0  0  0  0  0
  1  2  2  0  0  0  0
  1  6  1  0  0  0  0
  1  7  1  0  0  0  0
  2  5  1  0  0  0  0
  2  8  1  0  0  0  0
  3  4  1  0  0  0  0
  3  5  2  0  0  0  0
  3  9  1  0  0  0  0
  4  6  2  0  0  0  0
  7 17  2  0  0  0  0
  8 21  1  0  0  0  0
  9 10  2  0  0  0  0
  9 14  1  0  0  0  0
 10 13  1  0  0  0  0
 11 12  1  0  0  0  0
 11 13  2  0  0  0  0
 11 15  1  0  0  0  0
 12 14  2  0  0  0  0
 13 16  1  0  0  0  0
 15 19  2  0  0  0  0
 16 22  1  0  0  0  0
 17 18  2  0  0  0  0
 19 20  2  0  0  0  0
M  END
>  <Substance ID> (iss2_183)
iss2_183

>  <Molecular.Weight> (iss2_183)
296.3

>  <FW_iss2> (iss2_183)
296.3

>  <Parent.Atom.Count> (iss2_183)
22.0

>  <Parent.Molecular.Weight> (iss2_183)
296.3

>  <Rotatable.Bonds> (iss2_183)
5.0

>  <Hydrogen.Bond.Acceptors> (iss2_183)
6.0

>  <Polar.Surface.Area> (iss2_183)
77.32

>  <Lipinski.Score> (iss2_183)
0.0

>  <Canc_iss2> (iss2_183)
3.0

>  <ALogP> (iss2_183)
3.54

>  <Hydrogen.Bond.Donors> (iss2_183)
0.0

>  <ChemName_iss2> (iss2_183)
3,3'-dimethoxy-4,4'-biphenylene diisocyanate

>  <SMILES_iss2> (iss2_183)
COC1=C(C=CC(=C1)C2=CC(=C(C=C2)N=C=O)OC)N=C=O

>  <SAL_iss2> (iss2_183)
3

>  <CAS_iss2> (iss2_183)
91-93-0

>  <Formula_iss2> (iss2_183)
C16H12N2O4

$$$$
iss2_50


 10 10  0  0  0  0  0  0  0  0999 V2000
    1.1528   -3.3191    0.0000 C   0  0  0  0  0  0  0  0  0  0  0  0
    1.1528   -1.9889    0.0000 C   0  0  0  0  0  0  0  0  0  0  0  0
    3.4585   -1.9889    0.0000 C   0  0  0  0  0  0  0  0  0  0  0  0
    3.4585   -3.3191    0.0000 C   0  0  0  0  0  0  0  0  0  0  0  0
    2.3057   -1.3302    0.0000 C   0  0  0  0  0  0  0  0  0  0  0  0
    2.3057   -3.9905    0.0000 C   0  0  0  0  0  0  0  0  0  0  0  0
    2.3057   -0.0000    0.0000 N   0  0  0  0  0  0  0  0  0  0  0  0
    4.6113   -1.3302    0.0000 Cl  0  0  0  0  0  0  0  0  0  0  0  0
    0.0000   -1.3302    0.0000 Cl  0  0  0  0  0  0  0  0  0  0  0  0
    2.3057   -5.3207    0.0000 N   0  0  0  0  0  0  0  0  0  0  0  0
  1  2  2  0  0  0  0
  1  6  1  0  0  0  0
  2  5  1  0  0  0  0
  2  9  1  0  0  0  0
  3  4  1  0  0  0  0
  3  5  2  0  0  0  0
  3  8  1  0  0  0  0
  4  6  2  0  0  0  0
  5  7  1  0  0  0  0
  6 10  1  0  0  0  0
M  END
>  <Substance ID> (iss2_50)
iss2_50

>  <Molecular.Weight> (iss2_50)
177.0

>  <FW_iss2> (iss2_50)
177.0

>  <Parent.Atom.Count> (iss2_50)
10.0

>  <Parent.Molecular.Weight> (iss2_50)
177.0

>  <Rotatable.Bonds> (iss2_50)
0.0

>  <Hydrogen.Bond.Acceptors> (iss2_50)
0.0

>  <Polar.Surface.Area> (iss2_50)
52.04

>  <Lipinski.Score> (iss2_50)
0.0

>  <Canc_iss2> (iss2_50)
3.0

>  <ALogP> (iss2_50)
2.16

>  <Hydrogen.Bond.Donors> (iss2_50)
2.0

>  <ChemName_iss2> (iss2_50)
2,6-Dichloro-para-phenylenediamine 

>  <SMILES_iss2> (iss2_50)
NC1=C(C=C(C=C1Cl)N)Cl

>  <SAL_iss2> (iss2_50)
3

>  <CAS_iss2> (iss2_50)
609-20-1

>  <Formula_iss2> (iss2_50)
C6H6Cl2N2

$$$$