iss2_360
  CDK    5/6/07,13:51

 10  9  0  0  0  0  0  0  0  0999 V2000
    0.0000   -2.6562    0.0000 C   0  0  0  0  0  0  0  0  0  0  0  0
    1.1510   -1.9858    0.0000 N   0  0  0  0  0  0  0  0  0  0  0  0
    1.1510   -0.6577    0.0000 N   0  0  0  0  0  0  0  0  0  0  0  0
    2.3020   -2.6562    0.0000 C   0  0  0  0  0  0  0  0  0  0  0  0
    3.4530   -1.9858    0.0000 N   0  0  0  0  0  0  0  0  0  0  0  0
    2.3020   -3.9843    0.0000 N   0  0  0  0  0  0  0  0  0  0  0  0
    0.0000   -0.0000    0.0000 O   0  0  0  0  0  0  0  0  0  0  0  0
    4.6041   -2.6562    0.0000 N   0  0  0  0  0  0  0  0  0  0  0  0
    4.6041   -3.9843    0.0000 O   0  0  0  0  0  0  0  0  0  0  0  0
    5.7551   -1.9858    0.0000 O   0  0  0  0  0  0  0  0  0  0  0  0
  1  2  1  0  0  0  0 
  2  3  1  0  0  0  0 
  2  4  1  0  0  0  0 
  3  7  2  0  0  0  0 
  4  5  1  0  0  0  0 
  4  6  2  0  0  0  0 
  5  8  1  0  0  0  0 
  8  9  1  0  0  0  0 
  8 10  2  0  0  0  0 
M  CHG  1   8   1
M  CHG  1   9  -1
M  END
> <SA16 - alkyl carbamate#explanation>
16N

> <Hydrogen.Bond.Donors>
2.0

> <SA15 - Acyl halides#explanation>
15N

> <SA30 - alpha,beta unsaturated carbonyls #explanation>
30N

> <SA17 - N-nitroso amine#explanation>
17Y

> <SA25 aliphatic N-nitro group#explanation>
25Y

> <SA18 - primary aromatic amine, hydroxyl amine and its derived esters#explanation>
18N

> <SA20 - Polycyclic planar system, with 3 or more fused rings#explanation>
20N

> <ALogP>
-0.68

> <SA10 - S or N mustard>
No SA10

> <SMILES_iss2>
N=C(N(N=O)C)N[N+](=O)[O-]

> <SA10 - S or N mustard#explanation>
10N

> <Lipinski.Score>
0.0

> <Rotatable.Bonds>
4.0

> <SA14 Aliphatic halogen#explanation>
14N

> <SA31 - Aliphatic Azoxy#explanation>
31N

> <Title>
iss2_360

> <SA4 - Aromatic ring N-oxide#explanation>
4N

> <C:\nina\Projects\benigni\SA25\SA25.tml>
SA25 - Aliphatic N-nitro

> <C:\nina\Projects\benigni\SA25\SA25.tml#explanation>
0Y

> <SA 19 Polycyclic Aromatic Hydrocarbons, with three or more fused rings>
No SA19

> <SAL_iss2>
3

> <SA4 - Aromatic ring N-oxide>
No SA4

> <SA 19 Polycyclic Aromatic Hydrocarbons, with three or more fused rings#explanation>
19N,19.1N

> <SA30 - alpha,beta unsaturated carbonyls >
No SA30

> <FW_iss2>
147.1

> <SA24 - aliphatic diazo group>
No SA24

> <SA31 - Aliphatic Azoxy>
No SA31

> <SA16 - alkyl carbamate>
No SA16

> <SA22 - Alkyl Nitrite#explanation>
22N

> <Polar.Surface.Area>
120.4

> <SA2 - nitro aromatic>
No SA2

> <SA12 propiolactones and propiosultones>
No SA12

> <SA9 - monohaloalkene#explanation>
9N

> <SA13 Oxiranes and Aziridines#explanation>
13N

> <SA2 - nitro aromatic#explanation>
2N

> <SA21 - Aromatic nitroso#explanation>
21N

> <SA26 - Alpha, beta unsaturated alkoxy >
No SA26

> <SA13 Oxiranes and Aziridines>
No SA13

> < SA7 - non Aromatic aldehyde>
No SA7

> <Substance ID>
iss2_360

> <ChemName_iss2>
N-methyl-N'-nitro-N-nitrosoguanidine

> <SA28 -Aromatic diazonium>
No SA28

> <Parent.Atom.Count>
10.0

> <SA11 - N-haloamine>
No SA11

> < SA7 - non Aromatic aldehyde#explanation>
7N

> <SA29 - Isocyanate or Isothiocyanate#explanation>
29N

> <SA17 - N-nitroso amine>
SA17 - N-nitroso

> <Molecular.Weight>
147.1

> <SA27 - aromatic N-acyl amine>
No SA27

> <SA15 - Acyl halides>
No SA15

> <SA1 - Alkyl ester of sulphonic or phosphonic acid>
No SA1

> <SA22 - Alkyl Nitrite>
No SA22

> <SA6 - Hydrazine#explanation>
6Y,6.1Y

> <SA5 - Mono and di-alkyl amine.#explanation>
5N

> <Formula_iss2>
C2H5N5O3

> <SA25 aliphatic N-nitro group>
SA25 - Aliphatic N-nitro

> <SA8 - N-methylol#explanation>
8N

> <SA14 Aliphatic halogen>
No SA14

> <SA23>
No SA23

> <SA1 - Alkyl ester of sulphonic or phosphonic acid#explanation>
1N

> <Canc_iss2>
3.0

> <SA27 - aromatic N-acyl amine#explanation>
27N

> <SA20 - Polycyclic planar system, with 3 or more fused rings>
No SA20

> <Parent.Molecular.Weight>
147.1

> <SA3 - Aromatic diazo>
No SA3

> <SA12 propiolactones and propiosultones#explanation>
12N

> <SA21 - Aromatic nitroso>
No SA21

> <SA28 -Aromatic diazonium#explanation>
28N

> <SA24 - aliphatic diazo group#explanation>
24N

> <SA26 - Alpha, beta unsaturated alkoxy #explanation>
26N

> <SA23 azide and triazene groups#explanation>
23N

> <SA9 - monohaloalkene>
No SA9

> <SA5 - Mono and di-alkyl amine.>
No SA5

> <Hydrogen.Bond.Acceptors>
4.0

> <SA29 - Isocyanate or Isothiocyanate>
No SA29

> <CAS_iss2>
70-25-7

> <SA18 - primary aromatic amine, hydroxyl amine and its derived esters>
No SA18

> <SA23 azide and triazene groups>
No SA23

> <SA8 - N-methylol>
No SA8

> <SA6 - Hydrazine>
No SA6

> <SA3 - Aromatic diazo#explanation>
3N

> <SA11 - N-haloamine#explanation>
11N

> <SA23#explanation>
23N

$$$$
iss2_403
  CDK    5/6/07,13:51

  6  5  0  0  0  0  0  0  0  0999 V2000
    1.1506   -1.9978    0.0000 N   0  0  0  0  0  0  0  0  0  0  0  0
    1.1506   -3.3255    0.0000 C   0  0  0  0  0  0  0  0  0  0  0  0
    0.0000   -1.3277    0.0000 C   0  0  0  0  0  0  0  0  0  0  0  0
    2.3013   -1.3277    0.0000 N   0  0  0  0  0  0  0  0  0  0  0  0
    3.4519   -1.9978    0.0000 O   0  0  0  0  0  0  0  0  0  0  0  0
    2.3013   -0.0000    0.0000 O   0  0  0  0  0  0  0  0  0  0  0  0
  1  2  1  0  0  0  0 
  1  3  1  0  0  0  0 
  1  4  1  0  0  0  0 
  4  5  1  0  0  0  0 
  4  6  2  0  0  0  0 
M  CHG  1   4   1
M  CHG  1   5  -1
M  END
> <SA16 - alkyl carbamate#explanation>
16N

> <Hydrogen.Bond.Donors>
0.0

> <SA15 - Acyl halides#explanation>
15N

> <SA30 - alpha,beta unsaturated carbonyls #explanation>
30N

> <SA17 - N-nitroso amine#explanation>
17Y

> <SA25 aliphatic N-nitro group#explanation>
25Y

> <SA18 - primary aromatic amine, hydroxyl amine and its derived esters#explanation>
18N

> <SA20 - Polycyclic planar system, with 3 or more fused rings#explanation>
20N

> <ALogP>
-0.26

> <SA10 - S or N mustard>
No SA10

> <SMILES_iss2>
[O-][N+](=O)N(C)C

> <SA10 - S or N mustard#explanation>
10N

> <Lipinski.Score>
0.0

> <Rotatable.Bonds>
1.0

> <SA14 Aliphatic halogen#explanation>
14N

> <SA31 - Aliphatic Azoxy#explanation>
31N

> <Title>
iss2_403

> <SA4 - Aromatic ring N-oxide#explanation>
4N

> <C:\nina\Projects\benigni\SA25\SA25.tml>
SA25 - Aliphatic N-nitro

> <C:\nina\Projects\benigni\SA25\SA25.tml#explanation>
0Y

> <SA 19 Polycyclic Aromatic Hydrocarbons, with three or more fused rings>
No SA19

> <SAL_iss2>
3

> <SA4 - Aromatic ring N-oxide>
No SA4

> <SA 19 Polycyclic Aromatic Hydrocarbons, with three or more fused rings#explanation>
19N,19.1N

> <SA30 - alpha,beta unsaturated carbonyls >
No SA30

> <FW_iss2>
90.08

> <SA24 - aliphatic diazo group>
No SA24

> <SA31 - Aliphatic Azoxy>
No SA31

> <SA16 - alkyl carbamate>
No SA16

> <SA22 - Alkyl Nitrite#explanation>
22N

> <Polar.Surface.Area>
55.05

> <SA2 - nitro aromatic>
No SA2

> <SA12 propiolactones and propiosultones>
No SA12

> <SA9 - monohaloalkene#explanation>
9N

> <SA13 Oxiranes and Aziridines#explanation>
13N

> <SA2 - nitro aromatic#explanation>
2N

> <SA21 - Aromatic nitroso#explanation>
21N

> <SA26 - Alpha, beta unsaturated alkoxy >
No SA26

> <SA13 Oxiranes and Aziridines>
No SA13

> < SA7 - non Aromatic aldehyde>
No SA7

> <Substance ID>
iss2_403

> <ChemName_iss2>
Dimethylnitramine

> <SA28 -Aromatic diazonium>
No SA28

> <Parent.Atom.Count>
6.0

> <SA11 - N-haloamine>
No SA11

> < SA7 - non Aromatic aldehyde#explanation>
7N

> <SA29 - Isocyanate or Isothiocyanate#explanation>
29N

> <SA17 - N-nitroso amine>
SA17 - N-nitroso

> <Molecular.Weight>
90.08

> <SA27 - aromatic N-acyl amine>
No SA27

> <SA15 - Acyl halides>
No SA15

> <SA1 - Alkyl ester of sulphonic or phosphonic acid>
No SA1

> <SA22 - Alkyl Nitrite>
No SA22

> <SA6 - Hydrazine#explanation>
6Y,6.1Y

> <SA5 - Mono and di-alkyl amine.#explanation>
5N

> <Formula_iss2>
C2H6N2O2

> <SA25 aliphatic N-nitro group>
SA25 - Aliphatic N-nitro

> <SA8 - N-methylol#explanation>
8N

> <SA14 Aliphatic halogen>
No SA14

> <SA23>
No SA23

> <SA1 - Alkyl ester of sulphonic or phosphonic acid#explanation>
1N

> <Canc_iss2>
3.0

> <SA27 - aromatic N-acyl amine#explanation>
27N

> <SA20 - Polycyclic planar system, with 3 or more fused rings>
No SA20

> <Parent.Molecular.Weight>
90.08

> <SA3 - Aromatic diazo>
No SA3

> <SA12 propiolactones and propiosultones#explanation>
12N

> <SA21 - Aromatic nitroso>
No SA21

> <SA28 -Aromatic diazonium#explanation>
28N

> <SA24 - aliphatic diazo group#explanation>
24N

> <SA26 - Alpha, beta unsaturated alkoxy #explanation>
26N

> <SA23 azide and triazene groups#explanation>
23N

> <SA9 - monohaloalkene>
No SA9

> <SA5 - Mono and di-alkyl amine.>
No SA5

> <Hydrogen.Bond.Acceptors>
2.0

> <SA29 - Isocyanate or Isothiocyanate>
No SA29

> <CAS_iss2>
4164-28-7

> <SA18 - primary aromatic amine, hydroxyl amine and its derived esters>
No SA18

> <SA23 azide and triazene groups>
No SA23

> <SA8 - N-methylol>
No SA8

> <SA6 - Hydrazine>
No SA6

> <SA3 - Aromatic diazo#explanation>
3N

> <SA11 - N-haloamine#explanation>
11N

> <SA23#explanation>
23N

$$$$
iss2_435
  CDK    5/6/07,13:51

 11 10  0  0  0  0  0  0  0  0999 V2000
    2.3029   -1.9950    0.0000 N   0  0  0  0  0  0  0  0  0  0  0  0
    1.1515   -1.3255    0.0000 C   0  0  0  0  0  0  0  0  0  0  0  0
    0.0000   -1.9950    0.0000 C   0  0  0  0  0  0  0  0  0  0  0  0
    3.4544   -1.3255    0.0000 C   0  0  0  0  0  0  0  0  0  0  0  0
    4.6058   -1.9950    0.0000 N   0  0  0  0  0  0  0  0  0  0  0  0
    2.3029   -3.3205    0.0000 N   0  0  0  0  0  0  0  0  0  0  0  0
    1.1515   -3.9899    0.0000 O   0  0  0  0  0  0  0  0  0  0  0  0
    3.4544   -0.0000    0.0000 N   0  0  0  0  0  0  0  0  0  0  0  0
    4.6058   -3.3205    0.0000 N   0  0  0  0  0  0  0  0  0  0  0  0
    3.4544   -3.9899    0.0000 O   0  0  0  0  0  0  0  0  0  0  0  0
    5.7573   -3.9899    0.0000 O   0  0  0  0  0  0  0  0  0  0  0  0
  1  2  1  0  0  0  0 
  1  4  1  0  0  0  0 
  1  6  1  0  0  0  0 
  2  3  1  0  0  0  0 
  4  5  1  0  0  0  0 
  4  8  2  0  0  0  0 
  5  9  1  0  0  0  0 
  6  7  2  0  0  0  0 
  9 10  1  0  0  0  0 
  9 11  2  0  0  0  0 
M  CHG  1   9   1
M  CHG  1  10  -1
M  END
> <SA16 - alkyl carbamate#explanation>
16N

> <Hydrogen.Bond.Donors>
2.0

> <SA15 - Acyl halides#explanation>
15N

> <SA30 - alpha,beta unsaturated carbonyls #explanation>
30N

> <SA17 - N-nitroso amine#explanation>
17Y

> <SA25 aliphatic N-nitro group#explanation>
25Y

> <SA18 - primary aromatic amine, hydroxyl amine and its derived esters#explanation>
18N

> <SA20 - Polycyclic planar system, with 3 or more fused rings#explanation>
20N

> <ALogP>
-0.29

> <SA10 - S or N mustard>
No SA10

> <SMILES_iss2>
N=C(N(CC)N=O)N[N+]([O-])=O

> <SA10 - S or N mustard#explanation>
10N

> <Lipinski.Score>
0.0

> <Rotatable.Bonds>
5.0

> <SA14 Aliphatic halogen#explanation>
14N

> <SA31 - Aliphatic Azoxy#explanation>
31N

> <Title>
iss2_435

> <SA4 - Aromatic ring N-oxide#explanation>
4N

> <C:\nina\Projects\benigni\SA25\SA25.tml>
SA25 - Aliphatic N-nitro

> <C:\nina\Projects\benigni\SA25\SA25.tml#explanation>
0Y

> <SA 19 Polycyclic Aromatic Hydrocarbons, with three or more fused rings>
No SA19

> <SAL_iss2>
3

> <SA4 - Aromatic ring N-oxide>
No SA4

> <SA 19 Polycyclic Aromatic Hydrocarbons, with three or more fused rings#explanation>
19N,19.1N

> <SA30 - alpha,beta unsaturated carbonyls >
No SA30

> <FW_iss2>
161.1

> <SA24 - aliphatic diazo group>
No SA24

> <SA31 - Aliphatic Azoxy>
No SA31

> <SA16 - alkyl carbamate>
No SA16

> <SA22 - Alkyl Nitrite#explanation>
22N

> <Polar.Surface.Area>
120.4

> <SA2 - nitro aromatic>
No SA2

> <SA12 propiolactones and propiosultones>
No SA12

> <SA9 - monohaloalkene#explanation>
9N

> <SA13 Oxiranes and Aziridines#explanation>
13N

> <SA2 - nitro aromatic#explanation>
2N

> <SA21 - Aromatic nitroso#explanation>
21N

> <SA26 - Alpha, beta unsaturated alkoxy >
No SA26

> <SA13 Oxiranes and Aziridines>
No SA13

> < SA7 - non Aromatic aldehyde>
No SA7

> <Substance ID>
iss2_435

> <ChemName_iss2>
N-ethyl-N'-nitro-N-nitrosoguanidine

> <SA28 -Aromatic diazonium>
No SA28

> <Parent.Atom.Count>
11.0

> <SA11 - N-haloamine>
No SA11

> < SA7 - non Aromatic aldehyde#explanation>
7N

> <SA29 - Isocyanate or Isothiocyanate#explanation>
29N

> <SA17 - N-nitroso amine>
SA17 - N-nitroso

> <Molecular.Weight>
161.1

> <SA27 - aromatic N-acyl amine>
No SA27

> <SA15 - Acyl halides>
No SA15

> <SA1 - Alkyl ester of sulphonic or phosphonic acid>
No SA1

> <SA22 - Alkyl Nitrite>
No SA22

> <SA6 - Hydrazine#explanation>
6Y,6.1Y

> <SA5 - Mono and di-alkyl amine.#explanation>
5N

> <Formula_iss2>
C3H7N5O3

> <SA25 aliphatic N-nitro group>
SA25 - Aliphatic N-nitro

> <SA8 - N-methylol#explanation>
8N

> <SA14 Aliphatic halogen>
No SA14

> <SA23>
No SA23

> <SA1 - Alkyl ester of sulphonic or phosphonic acid#explanation>
1N

> <Canc_iss2>
3.0

> <SA27 - aromatic N-acyl amine#explanation>
27N

> <SA20 - Polycyclic planar system, with 3 or more fused rings>
No SA20

> <Parent.Molecular.Weight>
161.1

> <SA3 - Aromatic diazo>
No SA3

> <SA12 propiolactones and propiosultones#explanation>
12N

> <SA21 - Aromatic nitroso>
No SA21

> <SA28 -Aromatic diazonium#explanation>
28N

> <SA24 - aliphatic diazo group#explanation>
24N

> <SA26 - Alpha, beta unsaturated alkoxy #explanation>
26N

> <SA23 azide and triazene groups#explanation>
23N

> <SA9 - monohaloalkene>
No SA9

> <SA5 - Mono and di-alkyl amine.>
No SA5

> <Hydrogen.Bond.Acceptors>
4.0

> <SA29 - Isocyanate or Isothiocyanate>
No SA29

> <CAS_iss2>
63885-23-4

> <SA18 - primary aromatic amine, hydroxyl amine and its derived esters>
No SA18

> <SA23 azide and triazene groups>
No SA23

> <SA8 - N-methylol>
No SA8

> <SA6 - Hydrazine>
No SA6

> <SA3 - Aromatic diazo#explanation>
3N

> <SA11 - N-haloamine#explanation>
11N

> <SA23#explanation>
23N

$$$$
iss2_572
  CDK    5/6/07,13:51

 12 11  0  0  0  0  0  0  0  0999 V2000
    3.4611   -2.0031    0.0000 N   0  0  0  0  0  0  0  0  0  0  0  0
    3.4611   -0.6719    0.0000 N   0  0  0  0  0  0  0  0  0  0  0  0
    2.3074   -0.0000    0.0000 O   0  0  0  0  0  0  0  0  0  0  0  0
    4.6148   -2.6624    0.0000 C   0  0  0  0  0  0  0  0  0  0  0  0
    4.6148   -3.9935    0.0000 N   0  0  0  0  0  0  0  0  0  0  0  0
    5.7685   -2.0031    0.0000 N   0  0  0  0  0  0  0  0  0  0  0  0
    2.3074   -2.6624    0.0000 C   0  0  0  0  0  0  0  0  0  0  0  0
    1.1537   -2.0031    0.0000 C   0  0  0  0  0  0  0  0  0  0  0  0
    0.0000   -2.6624    0.0000 C   0  0  0  0  0  0  0  0  0  0  0  0
    6.9221   -2.6624    0.0000 N   0  0  0  0  0  0  0  0  0  0  0  0
    6.9221   -3.9935    0.0000 O   0  0  0  0  0  0  0  0  0  0  0  0
    8.0758   -2.0031    0.0000 O   0  0  0  0  0  0  0  0  0  0  0  0
  1  2  1  0  0  0  0 
  1  4  1  0  0  0  0 
  1  7  1  0  0  0  0 
  2  3  2  0  0  0  0 
  4  5  2  0  0  0  0 
  4  6  1  0  0  0  0 
  6 10  1  0  0  0  0 
  7  8  1  0  0  0  0 
  8  9  1  0  0  0  0 
 10 11  1  0  0  0  0 
 10 12  2  0  0  0  0 
M  CHG  1  10   1
M  CHG  1  11  -1
M  END
> <SA16 - alkyl carbamate#explanation>
16N

> <Hydrogen.Bond.Donors>
2.0

> <SA15 - Acyl halides#explanation>
15N

> <SA30 - alpha,beta unsaturated carbonyls #explanation>
30N

> <SA17 - N-nitroso amine#explanation>
17Y

> <SA25 aliphatic N-nitro group#explanation>
25Y

> <SA18 - primary aromatic amine, hydroxyl amine and its derived esters#explanation>
18N

> <SA20 - Polycyclic planar system, with 3 or more fused rings#explanation>
20N

> <ALogP>
0.1

> <SA10 - S or N mustard>
No SA10

> <SMILES_iss2>
N=C(N(CCC)N=O)N[N+](=O)[O-]

> <SA10 - S or N mustard#explanation>
10N

> <Lipinski.Score>
0.0

> <Rotatable.Bonds>
6.0

> <SA14 Aliphatic halogen#explanation>
14N

> <SA31 - Aliphatic Azoxy#explanation>
31N

> <Title>
iss2_572

> <SA4 - Aromatic ring N-oxide#explanation>
4N

> <C:\nina\Projects\benigni\SA25\SA25.tml>
SA25 - Aliphatic N-nitro

> <C:\nina\Projects\benigni\SA25\SA25.tml#explanation>
0Y

> <SA 19 Polycyclic Aromatic Hydrocarbons, with three or more fused rings>
No SA19

> <SAL_iss2>
3

> <SA4 - Aromatic ring N-oxide>
No SA4

> <SA 19 Polycyclic Aromatic Hydrocarbons, with three or more fused rings#explanation>
19N,19.1N

> <SA30 - alpha,beta unsaturated carbonyls >
No SA30

> <FW_iss2>
175.1

> <SA24 - aliphatic diazo group>
No SA24

> <SA31 - Aliphatic Azoxy>
No SA31

> <SA16 - alkyl carbamate>
No SA16

> <SA22 - Alkyl Nitrite#explanation>
22N

> <Polar.Surface.Area>
120.4

> <SA2 - nitro aromatic>
No SA2

> <SA12 propiolactones and propiosultones>
No SA12

> <SA9 - monohaloalkene#explanation>
9N

> <SA13 Oxiranes and Aziridines#explanation>
13N

> <SA2 - nitro aromatic#explanation>
2N

> <SA21 - Aromatic nitroso#explanation>
21N

> <SA26 - Alpha, beta unsaturated alkoxy >
No SA26

> <SA13 Oxiranes and Aziridines>
No SA13

> < SA7 - non Aromatic aldehyde>
No SA7

> <Substance ID>
iss2_572

> <ChemName_iss2>
N-propyl-N'-nitro-N-nitrosoguanidine

> <SA28 -Aromatic diazonium>
No SA28

> <Parent.Atom.Count>
12.0

> <SA11 - N-haloamine>
No SA11

> < SA7 - non Aromatic aldehyde#explanation>
7N

> <SA29 - Isocyanate or Isothiocyanate#explanation>
29N

> <SA17 - N-nitroso amine>
SA17 - N-nitroso

> <Molecular.Weight>
175.1

> <SA27 - aromatic N-acyl amine>
No SA27

> <SA15 - Acyl halides>
No SA15

> <SA1 - Alkyl ester of sulphonic or phosphonic acid>
No SA1

> <SA22 - Alkyl Nitrite>
No SA22

> <SA6 - Hydrazine#explanation>
6Y,6.1Y

> <SA5 - Mono and di-alkyl amine.#explanation>
5N

> <Formula_iss2>
C4H9N5O3

> <SA25 aliphatic N-nitro group>
SA25 - Aliphatic N-nitro

> <SA8 - N-methylol#explanation>
8N

> <SA14 Aliphatic halogen>
No SA14

> <SA23>
No SA23

> <SA1 - Alkyl ester of sulphonic or phosphonic acid#explanation>
1N

> <Canc_iss2>
3.0

> <SA27 - aromatic N-acyl amine#explanation>
27N

> <SA20 - Polycyclic planar system, with 3 or more fused rings>
No SA20

> <Parent.Molecular.Weight>
175.1

> <SA3 - Aromatic diazo>
No SA3

> <SA12 propiolactones and propiosultones#explanation>
12N

> <SA21 - Aromatic nitroso>
No SA21

> <SA28 -Aromatic diazonium#explanation>
28N

> <SA24 - aliphatic diazo group#explanation>
24N

> <SA26 - Alpha, beta unsaturated alkoxy #explanation>
26N

> <SA23 azide and triazene groups#explanation>
23N

> <SA9 - monohaloalkene>
No SA9

> <SA5 - Mono and di-alkyl amine.>
No SA5

> <Hydrogen.Bond.Acceptors>
4.0

> <SA29 - Isocyanate or Isothiocyanate>
No SA29

> <CAS_iss2>
13010-07-6

> <SA18 - primary aromatic amine, hydroxyl amine and its derived esters>
No SA18

> <SA23 azide and triazene groups>
No SA23

> <SA8 - N-methylol>
No SA8

> <SA6 - Hydrazine>
No SA6

> <SA3 - Aromatic diazo#explanation>
3N

> <SA11 - N-haloamine#explanation>
11N

> <SA23#explanation>
23N

$$$$
