iss246
  ACD/Labs1026071639

 16 16  0  0  0  0  0  0  0  0  2 V2000
    5.3255   -2.3037    0.0000 C   0  0  0  0  0  0  0  0  0  0  0  0
    5.9837   -1.1569    0.0000 C   0  0  0  0  0  0  0  0  0  0  0  0
    7.9883   -2.3037    0.0000 C   0  0  0  0  0  0  0  0  0  0  0  0
    7.3101   -3.4606    0.0000 C   0  0  0  0  0  0  0  0  0  0  0  0
    7.3101   -1.1569    0.0000 C   0  0  0  0  0  0  0  0  0  0  0  0
    5.9837   -3.4606    0.0000 C   0  0  0  0  0  0  0  0  0  0  0  0
    9.3147   -2.3037    0.0000 O   0  0  0  0  0  0  0  0  0  0  0  0
    9.9729   -1.1569    0.0000 C   0  0  0  0  0  0  0  0  0  0  0  0
    3.9892   -2.3037    0.0000 C   0  0  0  0  0  0  0  0  0  0  0  0
    3.3210   -1.1569    0.0000 C   0  0  0  0  0  0  0  0  0  0  0  0
    3.3210   -3.4606    0.0000 O   0  0  0  0  0  0  0  0  0  0  0  0
    2.0046   -1.1569    0.0000 C   0  0  0  0  0  0  0  0  0  0  0  0
    1.3264   -2.3037    0.0000 C   0  0  0  0  0  0  0  0  0  0  0  0
    0.0000   -2.3037    0.0000 O   0  0  0  0  0  0  0  0  0  0  0  0
    2.0046   -3.4606    0.0000 O   0  5  0  0  0  0  0  0  0  0  0  0
    3.9892   -0.0000    0.0000 Br  0  0  0  0  0  0  0  0  0  0  0  0
  1  2  2  0  0  0  0
  1  6  1  0  0  0  0
  1  9  1  0  0  0  0
  2  5  1  0  0  0  0
  3  4  1  0  0  0  0
  3  5  2  0  0  0  0
  3  7  1  0  0  0  0
  4  6  2  0  0  0  0
  7  8  1  0  0  0  0
  9 10  1  0  0  0  0
  9 11  2  0  0  0  0
 10 12  2  0  0  0  0
 10 16  1  0  0  0  0
 12 13  1  0  0  0  0
 13 14  2  0  0  0  0
 13 15  1  0  0  0  0
M  CHG  1  15  -1
M  END
>  <ID>
1

>  <Formula>
C11H8BrO4

>  <FW>
284.0828

>  <NA28.Primary aromatic amine, hydroxyl amine and its derived esters (with restrictions)>
NO

>  <NA15.Isocyanate and isothiocyanate groups>
NO

>  <NA25.Aromatic nitroso group>
NO

>  <SAL_iss2_>
3.0

>  <NA20.(Poly) Halogenated Cycloalkanes (Nongenotoxic carcinogens)>
NO

>  <Proceed with QSAR6 and QSAR8?.User input>
NO

>  <Canc_iss2_>
3.0

>  <QSAR8.Carcinogenicity in rodents (mice, rats); aromatic amines>
NO

>  <NA30.Coumarins and Furocoumarins>
NO

>  <NA31b.Halogenated PAH (naphthalenes, biphenyls, diphenyls)  (Nongenotoxic carcinogens)>
NO

>  <NA22.Azide and triazene groups>
NO

>  <QSAR6,8 applicable?.Aromatic amine without sulfonic group on the same ring>
NO

>  <ar-N=CH2.Derived aromatic amines>
NO

>  <NA13.Hydrazine>
NO

>  <NA24.?,? unsaturated alkoxy (linear)>
NO

>  <NA28ter.Aromatic N-acyl amine>
NO

>  <Title>
iss2_46

>  <NA16.Alkyl carbamate and thiocarbamate>
NO

>  <Substance ID>
iss2_46

>  <Proceed with QSAR13?.User input>
NO

>  <NA2.Alkyl (C<5) or benzyl ester of sulphonic or phosphonic acid>
NO

>  <NA12.Quinones>
NO

>  <QSAR6.Mutagenic activity in Salmonella typhimurium TA100, with S9 metabolic activation; aromatic amines.>
NO

>  <aN=Na.Aromatic diazo>
NO

>  <NA29.Aromatic diazo>
NO

>  <NA7.Epoxides and aziridines>
NO

>  <NA4.Monohaloalkene>
NO

>  <NA18.Polycyclic Aromatic Hydrocarbons>
NO

>  <NA3.N-methylol derivatives>
NO

>  <NA23.Aliphatic N-nitro>
NO

>  <NA6.Propiolactones and propiosultones>
NO

>  <NA1.Acyl halides>
NO

>  <QSAR13.Mutagenic activity in Salmonella typhimurium TA100;  ?,?-unsaturated  aliphatic aldehydes.>
NO

>  <NA5.S or N mustard>
NO

>  <NA17.Thiocarbonyl (Nongenotoxic carcinogens)>
NO

>  <NA27.Nitro aromatic>
NO

>  <NA19.Heterocyclic Polycyclic Aromatic Hydrocarbons>
NO

>  <NA8.Aliphatic halogens>
NO

>  <NA14.Aliphatic azo and azoxy>
NO

>  <NA11.Simple aldehyde>
NO

>  <NA26.Aromatic ring N-oxide>
NO

>  <NA31a.Halogenated benzene  (Nongenotoxic carcinogens)>
NO

>  <QSAR13 applicable?.?,? unsaturated aldehyde>
NO

>  <NA9.Alkyl nitrite>
NO

>  <NA28bis.Aromatic mono- and dialkylamine>
NO

>  <NA21.Alkyl and aryl N-nitroso groups>
NO

>  <NA10.?,? unsaturated carbonyls>
NO

>  <NA31c.Halogenated dibenzodioxins  (Nongenotoxic carcinogens)>
NO

$$$$
iss2_198
  ACD/Labs1026071639

 10 10  0  0  0  0  0  0  0  0  1 V2000
    3.1549   -2.4857    0.0000 C   0  0  0  0  0  0  0  0  0  0  0  0
    2.4857   -3.6282    0.0000 C   0  0  0  0  0  0  0  0  0  0  0  0
    1.1520   -3.6282    0.0000 C   0  0  0  0  0  0  0  0  0  0  0  0
    0.4924   -2.4857    0.0000 C   0  0  0  0  0  0  0  0  0  0  0  0
    1.1520   -1.3337    0.0000 C   0  0  0  0  0  0  0  0  0  0  0  0
    2.4857   -1.3337    0.0000 C   0  0  0  0  0  0  0  0  0  0  0  0
    0.4924   -4.7802    0.0000 O   0  0  0  0  0  0  0  0  0  0  0  0
    0.0000   -0.6597    0.0000 C   0  0  0  0  0  0  0  0  0  0  0  0
    1.1520   -0.0000    0.0000 C   0  0  0  0  0  0  0  0  0  0  0  0
    4.4886   -2.4857    0.0000 C   0  0  0  0  0  0  0  0  0  0  0  0
  1  2  2  0  0  0  0
  1  6  1  0  0  0  0
  1 10  1  0  0  0  0
  2  3  1  0  0  0  0
  3  4  1  0  0  0  0
  3  7  2  0  0  0  0
  4  5  1  0  0  0  0
  5  6  1  0  0  0  0
  5  8  1  0  0  0  0
  5  9  1  0  0  0  0
M  END
>  <ID>
2

>  <Formula>
C9H14O

>  <FW>
138.2069

>  <NA28.Primary aromatic amine, hydroxyl amine and its derived esters (with restrictions)>
NO

>  <NA15.Isocyanate and isothiocyanate groups>
NO

>  <NA25.Aromatic nitroso group>
NO

>  <SAL_iss2_>
1.0

>  <NA20.(Poly) Halogenated Cycloalkanes (Nongenotoxic carcinogens)>
NO

>  <Proceed with QSAR6 and QSAR8?.User input>
NO

>  <Canc_iss2_>
3.0

>  <QSAR8.Carcinogenicity in rodents (mice, rats); aromatic amines>
NO

>  <NA30.Coumarins and Furocoumarins>
NO

>  <NA31b.Halogenated PAH (naphthalenes, biphenyls, diphenyls)  (Nongenotoxic carcinogens)>
NO

>  <NA22.Azide and triazene groups>
NO

>  <QSAR6,8 applicable?.Aromatic amine without sulfonic group on the same ring>
NO

>  <ar-N=CH2.Derived aromatic amines>
NO

>  <NA13.Hydrazine>
NO

>  <NA24.?,? unsaturated alkoxy (linear)>
NO

>  <NA28ter.Aromatic N-acyl amine>
NO

>  <Title>
iss2_198

>  <NA16.Alkyl carbamate and thiocarbamate>
NO

>  <Substance ID>
iss2_198

>  <Proceed with QSAR13?.User input>
NO

>  <NA2.Alkyl (C<5) or benzyl ester of sulphonic or phosphonic acid>
NO

>  <NA12.Quinones>
NO

>  <QSAR6.Mutagenic activity in Salmonella typhimurium TA100, with S9 metabolic activation; aromatic amines.>
NO

>  <aN=Na.Aromatic diazo>
NO

>  <NA29.Aromatic diazo>
NO

>  <NA7.Epoxides and aziridines>
NO

>  <NA4.Monohaloalkene>
NO

>  <NA18.Polycyclic Aromatic Hydrocarbons>
NO

>  <NA3.N-methylol derivatives>
NO

>  <NA23.Aliphatic N-nitro>
NO

>  <NA6.Propiolactones and propiosultones>
NO

>  <NA1.Acyl halides>
NO

>  <QSAR13.Mutagenic activity in Salmonella typhimurium TA100;  ?,?-unsaturated  aliphatic aldehydes.>
NO

>  <NA5.S or N mustard>
NO

>  <NA17.Thiocarbonyl (Nongenotoxic carcinogens)>
NO

>  <NA27.Nitro aromatic>
NO

>  <NA19.Heterocyclic Polycyclic Aromatic Hydrocarbons>
NO

>  <NA8.Aliphatic halogens>
NO

>  <NA14.Aliphatic azo and azoxy>
NO

>  <NA11.Simple aldehyde>
NO

>  <NA26.Aromatic ring N-oxide>
NO

>  <NA31a.Halogenated benzene  (Nongenotoxic carcinogens)>
NO

>  <QSAR13 applicable?.?,? unsaturated aldehyde>
NO

>  <NA9.Alkyl nitrite>
NO

>  <NA28bis.Aromatic mono- and dialkylamine>
NO

>  <NA21.Alkyl and aryl N-nitroso groups>
NO

>  <NA10.?,? unsaturated carbonyls>
YES

>  <NA31c.Halogenated dibenzodioxins  (Nongenotoxic carcinogens)>
NO

$$$$
iss2_217
  ACD/Labs1026071639

 18 17  0  0  0  0  0  0  0  0  1 V2000
    1.9907   -2.3069    0.0000 P   0  0  0  0  0  0  0  0  0  0  0  0
    3.3209   -2.3069    0.0000 O   0  0  0  0  0  0  0  0  0  0  0  0
    1.9907   -3.6371    0.0000 O   0  0  0  0  0  0  0  0  0  0  0  0
    0.6605   -2.3069    0.0000 O   0  0  0  0  0  0  0  0  0  0  0  0
    1.9907   -0.9767    0.0000 O   0  0  0  0  0  0  0  0  0  0  0  0
    0.0000   -1.1535    0.0000 C   0  0  0  0  0  0  0  0  0  0  0  0
    3.1534   -4.2976    0.0000 C   0  0  0  0  0  0  0  0  0  0  0  0
    3.9906   -1.1535    0.0000 C   0  0  0  0  0  0  0  0  0  0  0  0
    3.3209   -0.0000    0.0000 C   0  0  0  0  0  0  0  0  0  0  0  0
    5.3115   -1.1535    0.0000 C   0  0  0  0  0  0  0  0  0  0  0  0
    5.9813   -0.0000    0.0000 Cl  0  0  0  0  0  0  0  0  0  0  0  0
    5.9813   -2.3069    0.0000 C   0  0  0  0  0  0  0  0  0  0  0  0
    5.3115   -3.4511    0.0000 O   0  0  0  0  0  0  0  0  0  0  0  0
    7.3115   -2.3069    0.0000 N   0  0  0  0  0  0  0  0  0  0  0  0
    7.9719   -1.1535    0.0000 C   0  0  0  0  0  0  0  0  0  0  0  0
    7.9719   -3.4511    0.0000 C   0  0  0  0  0  0  0  0  0  0  0  0
    9.3021   -1.1535    0.0000 C   0  0  0  0  0  0  0  0  0  0  0  0
    9.3021   -3.4511    0.0000 C   0  0  0  0  0  0  0  0  0  0  0  0
  1  2  1  0  0  0  0
  1  3  1  0  0  0  0
  1  4  1  0  0  0  0
  1  5  2  0  0  0  0
  2  8  1  0  0  0  0
  3  7  1  0  0  0  0
  4  6  1  0  0  0  0
  8  9  1  0  0  0  0
  8 10  2  0  0  0  0
 10 11  1  0  0  0  0
 10 12  1  0  0  0  0
 12 13  2  0  0  0  0
 12 14  1  0  0  0  0
 14 15  1  0  0  0  0
 14 16  1  0  0  0  0
 15 17  1  0  0  0  0
 16 18  1  0  0  0  0
M  END
>  <ID>
3

>  <Formula>
C10H19ClNO5P

>  <FW>
299.6881

>  <NA28.Primary aromatic amine, hydroxyl amine and its derived esters (with restrictions)>
NO

>  <NA15.Isocyanate and isothiocyanate groups>
NO

>  <NA25.Aromatic nitroso group>
NO

>  <SAL_iss2_>
3.0

>  <NA20.(Poly) Halogenated Cycloalkanes (Nongenotoxic carcinogens)>
NO

>  <Proceed with QSAR6 and QSAR8?.User input>
NO

>  <Canc_iss2_>
2.0

>  <QSAR8.Carcinogenicity in rodents (mice, rats); aromatic amines>
NO

>  <NA30.Coumarins and Furocoumarins>
NO

>  <NA31b.Halogenated PAH (naphthalenes, biphenyls, diphenyls)  (Nongenotoxic carcinogens)>
NO

>  <NA22.Azide and triazene groups>
NO

>  <QSAR6,8 applicable?.Aromatic amine without sulfonic group on the same ring>
NO

>  <ar-N=CH2.Derived aromatic amines>
NO

>  <NA13.Hydrazine>
NO

>  <NA24.?,? unsaturated alkoxy (linear)>
NO

>  <NA28ter.Aromatic N-acyl amine>
NO

>  <Title>
iss2_217

>  <NA16.Alkyl carbamate and thiocarbamate>
NO

>  <Substance ID>
iss2_217

>  <Proceed with QSAR13?.User input>
NO

>  <NA2.Alkyl (C<5) or benzyl ester of sulphonic or phosphonic acid>
YES

>  <NA12.Quinones>
NO

>  <QSAR6.Mutagenic activity in Salmonella typhimurium TA100, with S9 metabolic activation; aromatic amines.>
NO

>  <aN=Na.Aromatic diazo>
NO

>  <NA29.Aromatic diazo>
NO

>  <NA7.Epoxides and aziridines>
NO

>  <NA4.Monohaloalkene>
NO

>  <NA18.Polycyclic Aromatic Hydrocarbons>
NO

>  <NA3.N-methylol derivatives>
NO

>  <NA23.Aliphatic N-nitro>
NO

>  <NA6.Propiolactones and propiosultones>
NO

>  <NA1.Acyl halides>
NO

>  <QSAR13.Mutagenic activity in Salmonella typhimurium TA100;  ?,?-unsaturated  aliphatic aldehydes.>
NO

>  <NA5.S or N mustard>
NO

>  <NA17.Thiocarbonyl (Nongenotoxic carcinogens)>
NO

>  <NA27.Nitro aromatic>
NO

>  <NA19.Heterocyclic Polycyclic Aromatic Hydrocarbons>
NO

>  <NA8.Aliphatic halogens>
NO

>  <NA14.Aliphatic azo and azoxy>
NO

>  <NA11.Simple aldehyde>
NO

>  <NA26.Aromatic ring N-oxide>
NO

>  <NA31a.Halogenated benzene  (Nongenotoxic carcinogens)>
NO

>  <QSAR13 applicable?.?,? unsaturated aldehyde>
NO

>  <NA9.Alkyl nitrite>
NO

>  <NA28bis.Aromatic mono- and dialkylamine>
NO

>  <NA21.Alkyl and aryl N-nitroso groups>
NO

>  <NA10.?,? unsaturated carbonyls>
YES

>  <NA31c.Halogenated dibenzodioxins  (Nongenotoxic carcinogens)>
NO

$$$$
iss2_248
  ACD/Labs1026071639

 28 31  0  0  1  0  0  0  0  0  1 V2000
    2.2275   -5.9016    0.0000 C   0  0  0  0  0  0  0  0  0  0  0  0
    1.1182   -5.2538    0.0000 C   0  0  0  0  0  0  0  0  0  0  0  0
    1.1182   -3.9758    0.0000 C   0  0  0  0  0  0  0  0  0  0  0  0
    3.3457   -5.2538    0.0000 C   0  0  0  0  0  0  0  0  0  0  0  0
    3.3457   -3.9758    0.0000 C   0  0  0  0  0  0  0  0  0  0  0  0
    2.2275   -3.3280    0.0000 C   0  0  0  0  0  0  0  0  0  0  0  0
    2.2275   -2.0412    0.0000 C   0  0  0  0  0  0  0  0  0  0  0  0
    3.3457   -1.4022    0.0000 C   0  0  0  0  0  0  0  0  0  0  0  0
    4.4728   -3.3280    0.0000 C   0  0  0  0  0  0  0  0  0  0  0  0
    4.4728   -2.0412    0.0000 C   0  0  0  0  0  0  0  0  0  0  0  0
    6.7003   -3.3280    0.0000 C   0  0  0  0  0  0  0  0  0  0  0  0
    5.5732   -3.9758    0.0000 C   0  0  0  0  0  0  0  0  0  0  0  0
    6.7003   -2.0412    0.0000 C   0  0  0  0  0  0  0  0  0  0  0  0
    5.5732   -1.4022    0.0000 C   0  0  0  0  0  0  0  0  0  0  0  0
    5.8483   -0.1420    0.0000 C   0  0  0  0  0  0  0  0  0  0  0  0
    7.1352   -0.0000    0.0000 C   0  0  0  0  0  0  0  0  0  0  0  0
    7.6588   -1.1714    0.0000 C   0  0  0  0  0  0  0  0  0  0  0  0
    4.4728   -4.6237    0.0000 C   0  0  0  0  0  0  0  0  0  0  0  0
    7.9073   -2.4849    0.0000 C   0  0  0  0  0  0  0  0  0  0  0  0
    8.6172   -2.0412    0.0000 O   0  0  0  0  0  0  0  0  0  0  0  0
    8.8746   -0.7721    0.0000 C   0  0  0  0  0  0  0  0  0  0  0  0
    2.2275   -7.1973    0.0000 C   0  0  0  0  0  0  0  0  0  0  0  0
    0.0000   -5.9016    0.0000 O   0  0  0  0  0  0  0  0  0  0  0  0
    3.3457   -7.8451    0.0000 O   0  0  0  0  0  0  0  0  0  0  0  0
    1.1182   -2.6801    0.0000 H   0  0  0  0  0  0  0  0  0  0  0  0
    4.4728   -5.9016    0.0000 H   0  0  0  0  0  0  0  0  0  0  0  0
    4.5970   -0.5680    0.0000 H   0  0  0  0  0  0  0  0  0  0  0  0
    4.4728   -0.7543    0.0000 H   0  0  0  0  0  0  0  0  0  0  0  0
  1  2  1  0  0  0  0
  1  4  1  0  0  0  0
  1 22  2  0  0  0  0
  2  3  1  0  0  0  0
  2 23  2  0  0  0  0
  3  6  1  0  0  0  0
  4  5  1  0  0  0  0
  5  6  1  0  0  0  0
  5  9  1  0  0  0  0
  5 18  1  1  0  0  0
  6  7  1  0  0  0  0
  6 25  1  6  0  0  0
  7  8  1  0  0  0  0
  8 10  1  0  0  0  0
  9 10  1  0  0  0  0
  9 12  1  0  0  0  0
  9 26  1  6  0  0  0
 10 14  1  0  0  0  0
 10 28  1  1  0  0  0
 11 13  1  0  0  0  0
 11 12  1  0  0  0  0
 13 14  1  0  0  0  0
 13 17  1  0  0  0  0
 13 19  1  1  0  0  0
 14 15  1  0  0  0  0
 14 27  1  6  0  0  0
 15 16  1  0  0  0  0
 16 17  1  0  0  0  0
 17 20  1  1  0  0  0
 17 21  1  6  0  0  0
 22 24  1  0  0  0  0
M  END
>  <ID>
4

>  <Formula>
C21H32O3

>  <FW>
332.4770

>  <NA28.Primary aromatic amine, hydroxyl amine and its derived esters (with restrictions)>
NO

>  <NA15.Isocyanate and isothiocyanate groups>
NO

>  <NA25.Aromatic nitroso group>
NO

>  <SAL_iss2_>
1.0

>  <NA20.(Poly) Halogenated Cycloalkanes (Nongenotoxic carcinogens)>
NO

>  <Proceed with QSAR6 and QSAR8?.User input>
NO

>  <Canc_iss2_>
3.0

>  <QSAR8.Carcinogenicity in rodents (mice, rats); aromatic amines>
NO

>  <NA30.Coumarins and Furocoumarins>
NO

>  <NA31b.Halogenated PAH (naphthalenes, biphenyls, diphenyls)  (Nongenotoxic carcinogens)>
NO

>  <NA22.Azide and triazene groups>
NO

>  <QSAR6,8 applicable?.Aromatic amine without sulfonic group on the same ring>
NO

>  <ar-N=CH2.Derived aromatic amines>
NO

>  <NA13.Hydrazine>
NO

>  <NA24.?,? unsaturated alkoxy (linear)>
NO

>  <NA28ter.Aromatic N-acyl amine>
NO

>  <Title>
iss2_248

>  <NA16.Alkyl carbamate and thiocarbamate>
NO

>  <Substance ID>
iss2_248

>  <Proceed with QSAR13?.User input>
NO

>  <NA2.Alkyl (C<5) or benzyl ester of sulphonic or phosphonic acid>
NO

>  <NA12.Quinones>
NO

>  <QSAR6.Mutagenic activity in Salmonella typhimurium TA100, with S9 metabolic activation; aromatic amines.>
NO

>  <aN=Na.Aromatic diazo>
NO

>  <NA29.Aromatic diazo>
NO

>  <NA7.Epoxides and aziridines>
NO

>  <NA4.Monohaloalkene>
NO

>  <NA18.Polycyclic Aromatic Hydrocarbons>
NO

>  <NA3.N-methylol derivatives>
NO

>  <NA23.Aliphatic N-nitro>
NO

>  <NA6.Propiolactones and propiosultones>
NO

>  <NA1.Acyl halides>
NO

>  <QSAR13.Mutagenic activity in Salmonella typhimurium TA100;  ?,?-unsaturated  aliphatic aldehydes.>
NO

>  <NA5.S or N mustard>
NO

>  <NA17.Thiocarbonyl (Nongenotoxic carcinogens)>
NO

>  <NA27.Nitro aromatic>
NO

>  <NA19.Heterocyclic Polycyclic Aromatic Hydrocarbons>
NO

>  <NA8.Aliphatic halogens>
NO

>  <NA14.Aliphatic azo and azoxy>
NO

>  <NA11.Simple aldehyde>
NO

>  <NA26.Aromatic ring N-oxide>
NO

>  <NA31a.Halogenated benzene  (Nongenotoxic carcinogens)>
NO

>  <QSAR13 applicable?.?,? unsaturated aldehyde>
NO

>  <NA9.Alkyl nitrite>
NO

>  <NA28bis.Aromatic mono- and dialkylamine>
NO

>  <NA21.Alkyl and aryl N-nitroso groups>
NO

>  <NA10.?,? unsaturated carbonyls>
YES

>  <NA31c.Halogenated dibenzodioxins  (Nongenotoxic carcinogens)>
NO

$$$$
iss2_268
  ACD/Labs1026071639

  5  4  0  0  0  0  0  0  0  0  2 V2000
    1.1525   -1.3279    0.0000 C   0  0  0  0  0  0  0  0  0  0  0  0
    1.1525   -0.0000    0.0000 O   0  0  0  0  0  0  0  0  0  0  0  0
    0.0000   -1.9859    0.0000 C   0  0  0  0  0  0  0  0  0  0  0  0
    0.0000   -3.3179    0.0000 C   0  0  0  0  0  0  0  0  0  0  0  0
    1.1525   -3.9878    0.0000 O   0  5  0  0  0  0  0  0  0  0  0  0
  1  2  2  0  0  0  0
  1  3  1  0  0  0  0
  3  4  2  0  0  0  0
  4  5  1  0  0  0  0
M  CHG  1   5  -1
M  END
>  <ID>
5

>  <Formula>
C3H3O2

>  <FW>
71.0547

>  <NA28.Primary aromatic amine, hydroxyl amine and its derived esters (with restrictions)>
NO

>  <NA15.Isocyanate and isothiocyanate groups>
NO

>  <NA25.Aromatic nitroso group>
NO

>  <SAL_iss2_>
1.0

>  <NA20.(Poly) Halogenated Cycloalkanes (Nongenotoxic carcinogens)>
NO

>  <Proceed with QSAR6 and QSAR8?.User input>
NO

>  <Canc_iss2_>
3.0

>  <QSAR8.Carcinogenicity in rodents (mice, rats); aromatic amines>
NO

>  <NA30.Coumarins and Furocoumarins>
NO

>  <NA31b.Halogenated PAH (naphthalenes, biphenyls, diphenyls)  (Nongenotoxic carcinogens)>
NO

>  <NA22.Azide and triazene groups>
NO

>  <QSAR6,8 applicable?.Aromatic amine without sulfonic group on the same ring>
NO

>  <ar-N=CH2.Derived aromatic amines>
NO

>  <NA13.Hydrazine>
NO

>  <NA24.?,? unsaturated alkoxy (linear)>
NO

>  <NA28ter.Aromatic N-acyl amine>
NO

>  <Title>
iss2_268

>  <NA16.Alkyl carbamate and thiocarbamate>
NO

>  <Substance ID>
iss2_268

>  <Proceed with QSAR13?.User input>
NO

>  <NA2.Alkyl (C<5) or benzyl ester of sulphonic or phosphonic acid>
NO

>  <NA12.Quinones>
NO

>  <QSAR6.Mutagenic activity in Salmonella typhimurium TA100, with S9 metabolic activation; aromatic amines.>
NO

>  <aN=Na.Aromatic diazo>
NO

>  <NA29.Aromatic diazo>
NO

>  <NA7.Epoxides and aziridines>
NO

>  <NA4.Monohaloalkene>
NO

>  <NA18.Polycyclic Aromatic Hydrocarbons>
NO

>  <NA3.N-methylol derivatives>
NO

>  <NA23.Aliphatic N-nitro>
NO

>  <NA6.Propiolactones and propiosultones>
NO

>  <NA1.Acyl halides>
NO

>  <QSAR13.Mutagenic activity in Salmonella typhimurium TA100;  ?,?-unsaturated  aliphatic aldehydes.>
YES

>  <NA5.S or N mustard>
NO

>  <NA17.Thiocarbonyl (Nongenotoxic carcinogens)>
NO

>  <NA27.Nitro aromatic>
NO

>  <NA19.Heterocyclic Polycyclic Aromatic Hydrocarbons>
NO

>  <NA8.Aliphatic halogens>
NO

>  <NA14.Aliphatic azo and azoxy>
NO

>  <NA11.Simple aldehyde>
NO

>  <NA26.Aromatic ring N-oxide>
NO

>  <NA31a.Halogenated benzene  (Nongenotoxic carcinogens)>
NO

>  <QSAR13 applicable?.?,? unsaturated aldehyde>
YES

>  <NA9.Alkyl nitrite>
NO

>  <NA28bis.Aromatic mono- and dialkylamine>
NO

>  <NA21.Alkyl and aryl N-nitroso groups>
NO

>  <NA10.?,? unsaturated carbonyls>
YES

>  <NA31c.Halogenated dibenzodioxins  (Nongenotoxic carcinogens)>
NO

$$$$
iss2_275
  ACD/Labs1026071639

 33 36  0  0  1  0  0  0  0  0  1 V2000
    8.0682   -1.3351    0.0000 C   0  0  0  0  0  0  0  0  0  0  0  0
    9.2076   -2.0027    0.0000 C   0  0  0  0  0  0  0  0  0  0  0  0
    9.2076   -3.3263    0.0000 C   0  0  0  0  0  0  0  0  0  0  0  0
    8.0682   -3.9938    0.0000 C   0  0  0  0  0  0  0  0  0  0  0  0
    6.9057   -2.0027    0.0000 C   0  0  0  0  0  0  0  0  0  0  0  0
    6.9057   -3.3263    0.0000 C   0  0  0  0  0  0  0  0  0  0  0  0
    5.7433   -3.9938    0.0000 C   0  0  0  0  0  0  0  0  0  0  0  0
    5.7433   -1.3351    0.0000 C   0  0  0  0  0  0  0  0  0  0  0  0
    4.6038   -2.0027    0.0000 C   0  0  0  0  0  0  0  0  0  0  0  0
    4.6038   -3.3263    0.0000 C   0  0  0  0  0  0  0  0  0  0  0  0
    3.4413   -3.9938    0.0000 C   0  0  0  0  0  0  0  0  0  0  0  0
    3.4413   -1.3351    0.0000 C   0  0  0  0  0  0  0  0  0  0  0  0
    2.3019   -2.0027    0.0000 C   0  0  0  0  0  0  0  0  0  0  0  0
    2.3019   -3.3263    0.0000 C   0  0  0  0  0  0  0  0  0  0  0  0
    0.0000   -3.3263    0.0000 C   0  0  0  0  0  0  0  0  0  0  0  0
    0.0000   -2.0027    0.0000 C   0  0  0  0  0  0  0  0  0  0  0  0
    1.1394   -3.9938    0.0000 C   0  0  0  0  0  0  0  0  0  0  0  0
    1.1394   -1.3351    0.0000 C   0  0  0  0  0  0  0  0  0  0  0  0
    1.1394   -0.0000    0.0000 O   0  0  0  0  0  0  0  0  0  0  0  0
    3.4413   -0.0000    0.0000 O   0  0  0  0  0  0  0  0  0  0  0  0
    5.7433   -0.0000    0.0000 O   0  0  0  0  0  0  0  0  0  0  0  0
    6.9057   -0.6560    0.0000 O   0  0  0  0  0  0  0  0  0  0  0  0
    8.0682   -0.0000    0.0000 O   0  0  0  0  0  0  0  0  0  0  0  0
   10.3701   -1.3351    0.0000 C   0  0  0  0  0  0  0  0  0  0  0  0
   10.3701   -0.0000    0.0000 N   0  0  0  0  0  0  0  0  0  0  0  0
   11.5095   -2.0027    0.0000 O   0  0  0  0  0  0  0  0  0  0  0  0
    8.0682   -5.3174    0.0000 N   0  0  0  0  0  0  0  0  0  0  0  0
    6.9057   -5.9850    0.0000 C   0  0  0  0  0  0  0  0  0  0  0  0
    9.2076   -5.9850    0.0000 C   0  0  0  0  0  0  0  0  0  0  0  0
    5.7433   -5.3174    0.0000 O   0  0  0  0  0  0  0  0  0  0  0  0
    4.1204   -5.1333    0.0000 C   0  0  0  0  0  0  0  0  0  0  0  0
    2.7853   -5.1333    0.0000 O   0  0  0  0  0  0  0  0  0  0  0  0
   10.3701   -3.9938    0.0000 O   0  0  0  0  0  0  0  0  0  0  0  0
  1  5  1  0  0  0  0
  1  2  1  0  0  0  0
  1 23  2  0  0  0  0
  2  3  2  0  0  0  0
  2 24  1  0  0  0  0
  3  4  1  0  0  0  0
  3 33  1  0  0  0  0
  4  6  1  0  0  0  0
  4 27  1  6  0  0  0
  5  6  1  0  0  0  0
  5  8  1  0  0  0  0
  5 22  1  6  0  0  0
  6  7  1  0  0  0  0
  7 10  1  0  0  0  0
  7 30  1  6  0  0  0
  8  9  2  0  0  0  0
  8 21  1  0  0  0  0
  9 10  1  0  0  0  0
  9 12  1  0  0  0  0
 10 11  1  0  0  0  0
 11 14  1  0  0  0  0
 11 31  1  6  0  0  0
 11 32  1  0  0  0  0
 12 13  1  0  0  0  0
 12 20  2  0  0  0  0
 13 14  2  0  0  0  0
 13 18  1  0  0  0  0
 14 17  1  0  0  0  0
 15 16  1  0  0  0  0
 15 17  2  0  0  0  0
 16 18  2  0  0  0  0
 18 19  1  0  0  0  0
 24 25  1  0  0  0  0
 24 26  2  0  0  0  0
 27 28  1  0  0  0  0
 27 29  1  0  0  0  0
M  END
>  <ID>
6

>  <Formula>
C22H24N2O9

>  <FW>
460.4340

>  <NA28.Primary aromatic amine, hydroxyl amine and its derived esters (with restrictions)>
NO

>  <NA15.Isocyanate and isothiocyanate groups>
NO

>  <NA25.Aromatic nitroso group>
NO

>  <SAL_iss2_>
1.0

>  <NA20.(Poly) Halogenated Cycloalkanes (Nongenotoxic carcinogens)>
NO

>  <Proceed with QSAR6 and QSAR8?.User input>
NO

>  <Canc_iss2_>
2.0

>  <QSAR8.Carcinogenicity in rodents (mice, rats); aromatic amines>
NO

>  <NA30.Coumarins and Furocoumarins>
NO

>  <NA31b.Halogenated PAH (naphthalenes, biphenyls, diphenyls)  (Nongenotoxic carcinogens)>
NO

>  <NA22.Azide and triazene groups>
NO

>  <QSAR6,8 applicable?.Aromatic amine without sulfonic group on the same ring>
NO

>  <ar-N=CH2.Derived aromatic amines>
NO

>  <NA13.Hydrazine>
NO

>  <NA24.?,? unsaturated alkoxy (linear)>
NO

>  <NA28ter.Aromatic N-acyl amine>
NO

>  <Title>
iss2_275

>  <NA16.Alkyl carbamate and thiocarbamate>
NO

>  <Substance ID>
iss2_275

>  <Proceed with QSAR13?.User input>
NO

>  <NA2.Alkyl (C<5) or benzyl ester of sulphonic or phosphonic acid>
NO

>  <NA12.Quinones>
NO

>  <QSAR6.Mutagenic activity in Salmonella typhimurium TA100, with S9 metabolic activation; aromatic amines.>
NO

>  <aN=Na.Aromatic diazo>
NO

>  <NA29.Aromatic diazo>
NO

>  <NA7.Epoxides and aziridines>
NO

>  <NA4.Monohaloalkene>
NO

>  <NA18.Polycyclic Aromatic Hydrocarbons>
NO

>  <NA3.N-methylol derivatives>
NO

>  <NA23.Aliphatic N-nitro>
NO

>  <NA6.Propiolactones and propiosultones>
NO

>  <NA1.Acyl halides>
NO

>  <QSAR13.Mutagenic activity in Salmonella typhimurium TA100;  ?,?-unsaturated  aliphatic aldehydes.>
NO

>  <NA5.S or N mustard>
NO

>  <NA17.Thiocarbonyl (Nongenotoxic carcinogens)>
NO

>  <NA27.Nitro aromatic>
NO

>  <NA19.Heterocyclic Polycyclic Aromatic Hydrocarbons>
NO

>  <NA8.Aliphatic halogens>
NO

>  <NA14.Aliphatic azo and azoxy>
NO

>  <NA11.Simple aldehyde>
NO

>  <NA26.Aromatic ring N-oxide>
NO

>  <NA31a.Halogenated benzene  (Nongenotoxic carcinogens)>
NO

>  <QSAR13 applicable?.?,? unsaturated aldehyde>
NO

>  <NA9.Alkyl nitrite>
NO

>  <NA28bis.Aromatic mono- and dialkylamine>
NO

>  <NA21.Alkyl and aryl N-nitroso groups>
NO

>  <NA10.?,? unsaturated carbonyls>
YES

>  <NA31c.Halogenated dibenzodioxins  (Nongenotoxic carcinogens)>
NO

$$$$
iss2_279
  ACD/Labs1026071639

 32 35  0  0  1  0  0  0  0  0  1 V2000
    0.0000   -3.9839    0.0000 C   0  0  0  0  0  0  0  0  0  0  0  0
    0.0000   -2.6598    0.0000 C   0  0  0  0  0  0  0  0  0  0  0  0
    1.1514   -2.0035    0.0000 C   0  0  0  0  0  0  0  0  0  0  0  0
    1.1514   -4.6633    0.0000 C   0  0  0  0  0  0  0  0  0  0  0  0
    2.3029   -3.9839    0.0000 C   0  0  0  0  0  0  0  0  0  0  0  0
    2.3029   -2.6598    0.0000 C   0  0  0  0  0  0  0  0  0  0  0  0
    3.4543   -2.0035    0.0000 C   0  0  0  0  0  0  0  0  0  0  0  0
    3.4543   -4.6633    0.0000 C   0  0  0  0  0  0  0  0  0  0  0  0
    4.6057   -3.9839    0.0000 C   0  0  0  0  0  0  0  0  0  0  0  0
    4.6057   -2.6598    0.0000 C   0  0  0  0  0  0  0  0  0  0  0  0
    5.7687   -2.0035    0.0000 C   0  0  0  0  0  0  0  0  0  0  0  0
    5.7687   -4.6633    0.0000 C   0  0  0  0  0  0  0  0  0  0  0  0
    6.9086   -3.9839    0.0000 C   0  0  0  0  0  0  0  0  0  0  0  0
    6.9086   -2.6598    0.0000 C   0  0  0  0  0  0  0  0  0  0  0  0
    8.0600   -2.0035    0.0000 C   0  0  0  0  0  0  0  0  0  0  0  0
    9.2114   -2.6598    0.0000 C   0  0  0  0  0  0  0  0  0  0  0  0
    9.2114   -3.9839    0.0000 C   0  0  0  0  0  0  0  0  0  0  0  0
    8.0600   -4.6633    0.0000 C   0  0  0  0  0  0  0  0  0  0  0  0
    1.1514   -5.9874    0.0000 O   0  0  0  0  0  0  0  0  0  0  0  0
    5.7687   -5.9874    0.0000 O   0  0  0  0  0  0  0  0  0  0  0  0
   10.3744   -4.6633    0.0000 C   0  0  0  0  0  0  0  0  0  0  0  0
   10.3744   -5.9874    0.0000 N   0  0  0  0  0  0  0  0  0  0  0  0
   10.3744   -2.0035    0.0000 O   0  0  0  0  0  0  0  0  0  0  0  0
    2.7865   -0.8521    0.0000 O   0  0  0  0  0  0  0  0  0  0  0  0
    4.1106   -0.8521    0.0000 C   0  0  0  0  0  0  0  0  0  0  0  0
    8.0600   -5.9874    0.0000 O   0  0  0  0  0  0  0  0  0  0  0  0
   11.5143   -3.9839    0.0000 O   0  0  0  0  0  0  0  0  0  0  0  0
    8.0600   -0.6678    0.0000 N   0  0  0  0  0  0  0  0  0  0  0  0
    6.9086   -5.3311    0.0000 O   0  0  0  0  0  0  0  0  0  0  0  0
    3.4543   -5.9874    0.0000 O   0  0  0  0  0  0  0  0  0  0  0  0
    9.2114   -0.0000    0.0000 C   0  0  0  0  0  0  0  0  0  0  0  0
    6.9086   -0.0000    0.0000 C   0  0  0  0  0  0  0  0  0  0  0  0
  1  2  2  0  0  0  0
  1  4  1  0  0  0  0
  2  3  1  0  0  0  0
  3  6  2  0  0  0  0
  4  5  2  0  0  0  0
  4 19  1  0  0  0  0
  5  6  1  0  0  0  0
  5  8  1  0  0  0  0
  6  7  1  0  0  0  0
  7 10  1  0  0  0  0
  7 24  1  0  0  0  0
  7 25  1  1  0  0  0
  8  9  1  0  0  0  0
  8 30  2  0  0  0  0
  9 10  1  0  0  0  0
  9 12  2  0  0  0  0
 10 11  1  0  0  0  0
 11 14  1  0  0  0  0
 12 13  1  0  0  0  0
 12 20  1  0  0  0  0
 13 14  1  0  0  0  0
 13 18  1  0  0  0  0
 13 29  1  1  0  0  0
 14 15  1  0  0  0  0
 15 16  1  0  0  0  0
 15 28  1  1  0  0  0
 16 17  2  0  0  0  0
 16 23  1  0  0  0  0
 17 18  1  0  0  0  0
 17 21  1  0  0  0  0
 18 26  2  0  0  0  0
 21 22  1  0  0  0  0
 21 27  2  0  0  0  0
 28 31  1  0  0  0  0
 28 32  1  0  0  0  0
M  END
>  <ID>
7

>  <Formula>
C22H24N2O8

>  <FW>
444.4346

>  <NA28.Primary aromatic amine, hydroxyl amine and its derived esters (with restrictions)>
NO

>  <NA15.Isocyanate and isothiocyanate groups>
NO

>  <NA25.Aromatic nitroso group>
NO

>  <SAL_iss2_>
1.0

>  <NA20.(Poly) Halogenated Cycloalkanes (Nongenotoxic carcinogens)>
NO

>  <Proceed with QSAR6 and QSAR8?.User input>
NO

>  <Canc_iss2_>
1.0

>  <QSAR8.Carcinogenicity in rodents (mice, rats); aromatic amines>
NO

>  <NA30.Coumarins and Furocoumarins>
NO

>  <NA31b.Halogenated PAH (naphthalenes, biphenyls, diphenyls)  (Nongenotoxic carcinogens)>
NO

>  <NA22.Azide and triazene groups>
NO

>  <QSAR6,8 applicable?.Aromatic amine without sulfonic group on the same ring>
NO

>  <ar-N=CH2.Derived aromatic amines>
NO

>  <NA13.Hydrazine>
NO

>  <NA24.?,? unsaturated alkoxy (linear)>
NO

>  <NA28ter.Aromatic N-acyl amine>
NO

>  <Title>
iss2_279

>  <NA16.Alkyl carbamate and thiocarbamate>
NO

>  <Substance ID>
iss2_279

>  <Proceed with QSAR13?.User input>
NO

>  <NA2.Alkyl (C<5) or benzyl ester of sulphonic or phosphonic acid>
NO

>  <NA12.Quinones>
NO

>  <QSAR6.Mutagenic activity in Salmonella typhimurium TA100, with S9 metabolic activation; aromatic amines.>
NO

>  <aN=Na.Aromatic diazo>
NO

>  <NA29.Aromatic diazo>
NO

>  <NA7.Epoxides and aziridines>
NO

>  <NA4.Monohaloalkene>
NO

>  <NA18.Polycyclic Aromatic Hydrocarbons>
NO

>  <NA3.N-methylol derivatives>
NO

>  <NA23.Aliphatic N-nitro>
NO

>  <NA6.Propiolactones and propiosultones>
NO

>  <NA1.Acyl halides>
NO

>  <QSAR13.Mutagenic activity in Salmonella typhimurium TA100;  ?,?-unsaturated  aliphatic aldehydes.>
NO

>  <NA5.S or N mustard>
NO

>  <NA17.Thiocarbonyl (Nongenotoxic carcinogens)>
NO

>  <NA27.Nitro aromatic>
NO

>  <NA19.Heterocyclic Polycyclic Aromatic Hydrocarbons>
NO

>  <NA8.Aliphatic halogens>
NO

>  <NA14.Aliphatic azo and azoxy>
NO

>  <NA11.Simple aldehyde>
NO

>  <NA26.Aromatic ring N-oxide>
NO

>  <NA31a.Halogenated benzene  (Nongenotoxic carcinogens)>
NO

>  <QSAR13 applicable?.?,? unsaturated aldehyde>
NO

>  <NA9.Alkyl nitrite>
NO

>  <NA28bis.Aromatic mono- and dialkylamine>
NO

>  <NA21.Alkyl and aryl N-nitroso groups>
NO

>  <NA10.?,? unsaturated carbonyls>
YES

>  <NA31c.Halogenated dibenzodioxins  (Nongenotoxic carcinogens)>
NO

$$$$
iss2_282
  ACD/Labs1026071639

  5  4  0  0  0  0  0  0  0  0  1 V2000
    0.0000   -0.6604    0.0000 C   0  0  0  0  0  0  0  0  0  0  0  0
    2.3133   -0.6604    0.0000 C   0  0  0  0  0  0  0  0  0  0  0  0
    1.1584   -0.0000    0.0000 C   0  0  0  0  0  0  0  0  0  0  0  0
    2.3133   -1.9952    0.0000 O   0  0  0  0  0  0  0  0  0  0  0  0
    3.4578   -0.0000    0.0000 N   0  0  0  0  0  0  0  0  0  0  0  0
  1  3  2  0  0  0  0
  2  3  1  0  0  0  0
  2  4  2  0  0  0  0
  2  5  1  0  0  0  0
M  END
>  <ID>
8

>  <Formula>
C3H5NO

>  <FW>
71.0779

>  <NA28.Primary aromatic amine, hydroxyl amine and its derived esters (with restrictions)>
NO

>  <NA15.Isocyanate and isothiocyanate groups>
NO

>  <NA25.Aromatic nitroso group>
NO

>  <SAL_iss2_>
1.0

>  <NA20.(Poly) Halogenated Cycloalkanes (Nongenotoxic carcinogens)>
NO

>  <Proceed with QSAR6 and QSAR8?.User input>
NO

>  <Canc_iss2_>
3.0

>  <QSAR8.Carcinogenicity in rodents (mice, rats); aromatic amines>
NO

>  <NA30.Coumarins and Furocoumarins>
NO

>  <NA31b.Halogenated PAH (naphthalenes, biphenyls, diphenyls)  (Nongenotoxic carcinogens)>
NO

>  <NA22.Azide and triazene groups>
NO

>  <QSAR6,8 applicable?.Aromatic amine without sulfonic group on the same ring>
NO

>  <ar-N=CH2.Derived aromatic amines>
NO

>  <NA13.Hydrazine>
NO

>  <NA24.?,? unsaturated alkoxy (linear)>
NO

>  <NA28ter.Aromatic N-acyl amine>
NO

>  <Title>
iss2_282

>  <NA16.Alkyl carbamate and thiocarbamate>
NO

>  <Substance ID>
iss2_282

>  <Proceed with QSAR13?.User input>
NO

>  <NA2.Alkyl (C<5) or benzyl ester of sulphonic or phosphonic acid>
NO

>  <NA12.Quinones>
NO

>  <QSAR6.Mutagenic activity in Salmonella typhimurium TA100, with S9 metabolic activation; aromatic amines.>
NO

>  <aN=Na.Aromatic diazo>
NO

>  <NA29.Aromatic diazo>
NO

>  <NA7.Epoxides and aziridines>
NO

>  <NA4.Monohaloalkene>
NO

>  <NA18.Polycyclic Aromatic Hydrocarbons>
NO

>  <NA3.N-methylol derivatives>
NO

>  <NA23.Aliphatic N-nitro>
NO

>  <NA6.Propiolactones and propiosultones>
NO

>  <NA1.Acyl halides>
NO

>  <QSAR13.Mutagenic activity in Salmonella typhimurium TA100;  ?,?-unsaturated  aliphatic aldehydes.>
NO

>  <NA5.S or N mustard>
NO

>  <NA17.Thiocarbonyl (Nongenotoxic carcinogens)>
NO

>  <NA27.Nitro aromatic>
NO

>  <NA19.Heterocyclic Polycyclic Aromatic Hydrocarbons>
NO

>  <NA8.Aliphatic halogens>
NO

>  <NA14.Aliphatic azo and azoxy>
NO

>  <NA11.Simple aldehyde>
NO

>  <NA26.Aromatic ring N-oxide>
NO

>  <NA31a.Halogenated benzene  (Nongenotoxic carcinogens)>
NO

>  <QSAR13 applicable?.?,? unsaturated aldehyde>
NO

>  <NA9.Alkyl nitrite>
NO

>  <NA28bis.Aromatic mono- and dialkylamine>
NO

>  <NA21.Alkyl and aryl N-nitroso groups>
NO

>  <NA10.?,? unsaturated carbonyls>
YES

>  <NA31c.Halogenated dibenzodioxins  (Nongenotoxic carcinogens)>
NO

$$$$
iss2_332
  ACD/Labs1026071639

 90 96  0  0  0  0  0  0  0  0  1 V2000
    9.8260   -2.2218    0.0000 C   0  0  0  0  0  0  0  0  0  0  0  0
    7.6824   -6.5559    0.0000 C   0  0  0  0  0  0  0  0  0  0  0  0
   11.1560   -2.0653    0.0000 C   0  0  0  0  0  0  0  0  0  0  0  0
    9.4036   -0.9701    0.0000 O   0  0  0  0  0  0  0  0  0  0  0  0
    8.3552   -7.7137    0.0000 N   0  0  0  0  0  0  0  0  0  0  0  0
    6.4307   -6.9783    0.0000 O   0  0  0  0  0  0  0  0  0  0  0  0
   12.4233   -2.3939    0.0000 N   0  0  0  0  0  0  0  0  0  0  0  0
   11.2185   -0.7354    0.0000 C   0  0  0  0  0  0  0  0  0  0  0  0
    9.4192   -8.5117    0.0000 C   0  0  0  0  0  0  0  0  0  0  0  0
   13.4873   -3.2075    0.0000 C   0  0  0  0  0  0  0  0  0  0  0  0
   13.0179   -1.2048    0.0000 C   0  0  0  0  0  0  0  0  0  0  0  0
   10.1233   -0.0000    0.0000 C   0  0  0  0  0  0  0  0  0  0  0  0
   12.4233   -0.1252    0.0000 C   0  0  0  0  0  0  0  0  0  0  0  0
   10.6866   -8.8559    0.0000 C   0  0  0  0  0  0  0  0  0  0  0  0
    8.8246   -9.7165    0.0000 C   0  0  0  0  0  0  0  0  0  0  0  0
   14.1444   -4.3654    0.0000 C   0  0  0  0  0  0  0  0  0  0  0  0
   14.4887   -2.3313    0.0000 O   0  0  0  0  0  0  0  0  0  0  0  0
   12.0165   -8.6838    0.0000 N   0  0  0  0  0  0  0  0  0  0  0  0
   10.6083  -10.1859    0.0000 O   0  0  0  0  0  0  0  0  0  0  0  0
    7.4947   -9.7791    0.0000 C   0  0  0  0  0  0  0  0  0  0  0  0
    9.5600  -10.8117    0.0000 C   0  0  0  0  0  0  0  0  0  0  0  0
   14.3166   -5.6797    0.0000 N   0  0  0  0  0  0  0  0  0  0  0  0
   13.1587   -8.0110    0.0000 C   0  0  0  0  0  0  0  0  0  0  0  0
   12.2825   -9.9825    0.0000 C   0  0  0  0  0  0  0  0  0  0  0  0
   13.9723   -6.9627    0.0000 C   0  0  0  0  0  0  0  0  0  0  0  0
   15.6465   -5.7736    0.0000 C   0  0  0  0  0  0  0  0  0  0  0  0
   14.1444   -8.9185    0.0000 C   0  0  0  0  0  0  0  0  0  0  0  0
   13.6125  -10.1233    0.0000 C   0  0  0  0  0  0  0  0  0  0  0  0
   15.1615   -7.5573    0.0000 O   0  0  0  0  0  0  0  0  0  0  0  0
    8.6838   -2.8946    0.0000 O   0  0  0  0  0  0  0  0  0  0  0  0
    7.8702   -3.9429    0.0000 C   0  0  0  0  0  0  0  0  0  0  0  0
    6.6811   -3.3640    0.0000 C   0  0  0  0  0  0  0  0  0  0  0  0
    7.5103   -5.2416    0.0000 C   0  0  0  0  0  0  0  0  0  0  0  0
    9.5287   -6.8219    0.0000 C   0  0  0  0  0  0  0  0  0  0  0  0
    7.3852  -11.1403    0.0000 C   0  0  0  0  0  0  0  0  0  0  0  0
   10.8430   -6.6498    0.0000 C   0  0  0  0  0  0  0  0  0  0  0  0
    9.0906   -5.5702    0.0000 O   0  0  0  0  0  0  0  0  0  0  0  0
    8.0580  -12.2982    0.0000 N   0  0  0  0  0  0  0  0  0  0  0  0
    6.1334  -11.5784    0.0000 O   0  0  0  0  0  0  0  0  0  0  0  0
   12.1260   -6.9940    0.0000 N   0  0  0  0  0  0  0  0  0  0  0  0
   10.9369   -5.3198    0.0000 C   0  0  0  0  0  0  0  0  0  0  0  0
    9.1063  -13.1118    0.0000 C   0  0  0  0  0  0  0  0  0  0  0  0
   13.1744   -7.8076    0.0000 C   0  0  0  0  0  0  0  0  0  0  0  0
   12.7206   -5.8049    0.0000 C   0  0  0  0  0  0  0  0  0  0  0  0
    9.8260   -4.5844    0.0000 C   0  0  0  0  0  0  0  0  0  0  0  0
   12.1260   -4.7252    0.0000 C   0  0  0  0  0  0  0  0  0  0  0  0
   10.4049  -13.4404    0.0000 C   0  0  0  0  0  0  0  0  0  0  0  0
    8.5273  -14.3009    0.0000 C   0  0  0  0  0  0  0  0  0  0  0  0
   13.8472   -8.9498    0.0000 C   0  0  0  0  0  0  0  0  0  0  0  0
   14.1757   -6.9158    0.0000 O   0  0  0  0  0  0  0  0  0  0  0  0
   11.7192  -13.2839    0.0000 N   0  0  0  0  0  0  0  0  0  0  0  0
   10.3111  -14.7860    0.0000 O   0  0  0  0  0  0  0  0  0  0  0  0
    7.1974  -14.3791    0.0000 C   0  0  0  0  0  0  0  0  0  0  0  0
    9.2627  -15.4118    0.0000 C   0  0  0  0  0  0  0  0  0  0  0  0
   14.0193  -10.2798    0.0000 N   0  0  0  0  0  0  0  0  0  0  0  0
   12.8771  -12.6111    0.0000 C   0  0  0  0  0  0  0  0  0  0  0  0
   11.9852  -14.5825    0.0000 C   0  0  0  0  0  0  0  0  0  0  0  0
   13.6750  -11.5628    0.0000 C   0  0  0  0  0  0  0  0  0  0  0  0
   15.3492  -10.3580    0.0000 C   0  0  0  0  0  0  0  0  0  0  0  0
   13.8628  -13.5029    0.0000 C   0  0  0  0  0  0  0  0  0  0  0  0
   13.3152  -14.7077    0.0000 C   0  0  0  0  0  0  0  0  0  0  0  0
   14.8798  -12.1417    0.0000 O   0  0  0  0  0  0  0  0  0  0  0  0
    8.3709   -7.4947    0.0000 O   0  0  0  0  0  0  0  0  0  0  0  0
    7.5573   -8.5430    0.0000 C   0  0  0  0  0  0  0  0  0  0  0  0
    6.3681   -7.9641    0.0000 C   0  0  0  0  0  0  0  0  0  0  0  0
    7.2287   -9.8260    0.0000 C   0  0  0  0  0  0  0  0  0  0  0  0
    3.3796   -7.2600    0.0000 C   0  0  0  0  0  0  0  0  0  0  0  0
    2.0653   -7.1817    0.0000 C   0  0  0  0  0  0  0  0  0  0  0  0
    3.9742   -8.4491    0.0000 C   0  0  0  0  0  0  0  0  0  0  0  0
    4.1307   -6.1647    0.0000 N   0  0  0  0  0  0  0  0  0  0  0  0
    1.4708   -5.9926    0.0000 O   0  0  0  0  0  0  0  0  0  0  0  0
    1.3143   -8.2927    0.0000 C   0  0  0  0  0  0  0  0  0  0  0  0
    5.3042   -8.5430    0.0000 C   0  0  0  0  0  0  0  0  0  0  0  0
    3.2232   -9.5757    0.0000 C   0  0  0  0  0  0  0  0  0  0  0  0
    3.5361   -4.9756    0.0000 C   0  0  0  0  0  0  0  0  0  0  0  0
    2.2062   -4.8817    0.0000 C   0  0  0  0  0  0  0  0  0  0  0  0
    1.9089   -9.4818    0.0000 C   0  0  0  0  0  0  0  0  0  0  0  0
    0.0000   -8.1988    0.0000 C   0  0  0  0  0  0  0  0  0  0  0  0
    5.8987   -9.7478    0.0000 N   0  0  0  0  0  0  0  0  0  0  0  0
    6.0396   -7.4477    0.0000 O   0  0  0  0  0  0  0  0  0  0  0  0
    3.8334  -10.7648    0.0000 N   0  0  0  0  0  0  0  0  0  0  0  0
    4.2871   -3.8647    0.0000 C   0  0  0  0  0  0  0  0  0  0  0  0
    1.6272   -3.6926    0.0000 C   0  0  0  0  0  0  0  0  0  0  0  0
    1.1578  -10.5770    0.0000 O   0  0  0  0  0  0  0  0  0  0  0  0
    5.6015   -3.9586    0.0000 C   0  0  0  0  0  0  0  0  0  0  0  0
    3.6926   -2.6756    0.0000 C   0  0  0  0  0  0  0  0  0  0  0  0
    2.3626   -2.5973    0.0000 C   0  0  0  0  0  0  0  0  0  0  0  0
    0.2973   -3.5987    0.0000 C   0  0  0  0  0  0  0  0  0  0  0  0
    6.1960   -5.1477    0.0000 N   0  0  0  0  0  0  0  0  0  0  0  0
    6.3525   -2.8477    0.0000 O   0  0  0  0  0  0  0  0  0  0  0  0
  1 30  1  0  0  0  0
  1  3  1  0  0  0  0
  1  4  2  0  0  0  0
  2  5  1  0  0  0  0
  2 33  1  0  0  0  0
  2  6  2  0  0  0  0
  3  7  1  0  0  0  0
  3  8  1  0  0  0  0
  5  9  1  0  0  0  0
  7 10  1  0  0  0  0
  7 11  1  0  0  0  0
  8 12  1  0  0  0  0
  8 13  1  0  0  0  0
  9 14  1  0  0  0  0
  9 15  1  0  0  0  0
 10 16  1  0  0  0  0
 10 17  2  0  0  0  0
 14 18  1  0  0  0  0
 14 19  2  0  0  0  0
 15 20  1  0  0  0  0
 15 21  1  0  0  0  0
 16 22  1  0  0  0  0
 18 23  1  0  0  0  0
 18 24  1  0  0  0  0
 22 25  1  0  0  0  0
 22 26  1  0  0  0  0
 23 25  1  0  0  0  0
 23 27  1  0  0  0  0
 24 28  1  0  0  0  0
 25 29  2  0  0  0  0
 27 28  1  0  0  0  0
 30 31  1  0  0  0  0
 31 32  1  0  0  0  0
 31 33  1  0  0  0  0
 33 89  1  0  0  0  0
 34 36  1  0  0  0  0
 34 37  2  0  0  0  0
 34 63  1  0  0  0  0
 35 38  1  0  0  0  0
 35 39  2  0  0  0  0
 35 66  1  0  0  0  0
 36 40  1  0  0  0  0
 36 41  1  0  0  0  0
 38 42  1  0  0  0  0
 40 43  1  0  0  0  0
 40 44  1  0  0  0  0
 41 45  1  0  0  0  0
 41 46  1  0  0  0  0
 42 47  1  0  0  0  0
 42 48  1  0  0  0  0
 43 49  1  0  0  0  0
 43 50  2  0  0  0  0
 47 51  1  0  0  0  0
 47 52  2  0  0  0  0
 48 53  1  0  0  0  0
 48 54  1  0  0  0  0
 49 55  1  0  0  0  0
 51 56  1  0  0  0  0
 51 57  1  0  0  0  0
 55 58  1  0  0  0  0
 55 59  1  0  0  0  0
 56 60  1  0  0  0  0
 56 58  1  0  0  0  0
 57 61  1  0  0  0  0
 58 62  2  0  0  0  0
 60 61  1  0  0  0  0
 63 64  1  0  0  0  0
 64 65  1  0  0  0  0
 64 66  1  0  0  0  0
 66 79  1  0  0  0  0
 67 68  1  0  0  0  0
 67 69  1  0  0  0  0
 67 70  2  0  0  0  0
 68 71  1  0  0  0  0
 68 72  2  0  0  0  0
 69 73  1  0  0  0  0
 69 74  2  0  0  0  0
 70 75  1  0  0  0  0
 71 76  1  0  0  0  0
 72 77  1  0  0  0  0
 72 78  1  0  0  0  0
 73 79  1  0  0  0  0
 73 80  2  0  0  0  0
 74 81  1  0  0  0  0
 74 77  1  0  0  0  0
 75 82  2  0  0  0  0
 75 76  1  0  0  0  0
 76 83  2  0  0  0  0
 77 84  2  0  0  0  0
 82 85  1  0  0  0  0
 82 86  1  0  0  0  0
 83 87  1  0  0  0  0
 83 88  1  0  0  0  0
 85 89  1  0  0  0  0
 85 90  2  0  0  0  0
 86 87  2  0  0  0  0
M  END
>  <ID>
9

>  <Formula>
C62H86N12O16

>  <FW>
1255.4175

>  <NA28.Primary aromatic amine, hydroxyl amine and its derived esters (with restrictions)>
NO

>  <NA15.Isocyanate and isothiocyanate groups>
NO

>  <NA25.Aromatic nitroso group>
NO

>  <SAL_iss2_>
1.0

>  <NA20.(Poly) Halogenated Cycloalkanes (Nongenotoxic carcinogens)>
NO

>  <Proceed with QSAR6 and QSAR8?.User input>
NO

>  <Canc_iss2_>
3.0

>  <QSAR8.Carcinogenicity in rodents (mice, rats); aromatic amines>
NO

>  <NA30.Coumarins and Furocoumarins>
NO

>  <NA31b.Halogenated PAH (naphthalenes, biphenyls, diphenyls)  (Nongenotoxic carcinogens)>
NO

>  <NA22.Azide and triazene groups>
NO

>  <QSAR6,8 applicable?.Aromatic amine without sulfonic group on the same ring>
YES

>  <ar-N=CH2.Derived aromatic amines>
NO

>  <NA13.Hydrazine>
NO

>  <NA24.?,? unsaturated alkoxy (linear)>
NO

>  <NA28ter.Aromatic N-acyl amine>
NO

>  <Title>
iss2_332

>  <NA16.Alkyl carbamate and thiocarbamate>
NO

>  <Substance ID>
iss2_332

>  <Proceed with QSAR13?.User input>
NO

>  <NA2.Alkyl (C<5) or benzyl ester of sulphonic or phosphonic acid>
NO

>  <NA12.Quinones>
NO

>  <QSAR6.Mutagenic activity in Salmonella typhimurium TA100, with S9 metabolic activation; aromatic amines.>
NO

>  <aN=Na.Aromatic diazo>
NO

>  <NA29.Aromatic diazo>
NO

>  <NA7.Epoxides and aziridines>
NO

>  <NA4.Monohaloalkene>
NO

>  <NA18.Polycyclic Aromatic Hydrocarbons>
NO

>  <NA3.N-methylol derivatives>
NO

>  <NA23.Aliphatic N-nitro>
NO

>  <NA6.Propiolactones and propiosultones>
NO

>  <NA1.Acyl halides>
NO

>  <QSAR13.Mutagenic activity in Salmonella typhimurium TA100;  ?,?-unsaturated  aliphatic aldehydes.>
NO

>  <NA5.S or N mustard>
NO

>  <NA17.Thiocarbonyl (Nongenotoxic carcinogens)>
NO

>  <NA27.Nitro aromatic>
NO

>  <NA19.Heterocyclic Polycyclic Aromatic Hydrocarbons>
NO

>  <NA8.Aliphatic halogens>
NO

>  <NA14.Aliphatic azo and azoxy>
NO

>  <NA11.Simple aldehyde>
NO

>  <NA26.Aromatic ring N-oxide>
NO

>  <NA31a.Halogenated benzene  (Nongenotoxic carcinogens)>
NO

>  <QSAR13 applicable?.?,? unsaturated aldehyde>
NO

>  <NA9.Alkyl nitrite>
NO

>  <NA28bis.Aromatic mono- and dialkylamine>
NO

>  <NA21.Alkyl and aryl N-nitroso groups>
NO

>  <NA10.?,? unsaturated carbonyls>
NO

>  <NA31c.Halogenated dibenzodioxins  (Nongenotoxic carcinogens)>
NO

$$$$
iss2_356
  ACD/Labs1026071639

  9  9  0  0  0  0  0  0  0  0  1 V2000
    2.0040   -3.4505    0.0000 N   0  0  0  0  0  0  0  0  0  0  0  0
    1.3314   -2.3080    0.0000 C   0  0  0  0  0  0  0  0  0  0  0  0
    2.0040   -1.1563    0.0000 N   0  0  0  0  0  0  0  0  0  0  0  0
    3.3399   -1.1563    0.0000 C   0  0  0  0  0  0  0  0  0  0  0  0
    3.9987   -2.3080    0.0000 C   0  0  0  0  0  0  0  0  0  0  0  0
    3.3399   -3.4505    0.0000 C   0  0  0  0  0  0  0  0  0  0  0  0
    3.9987   -0.0000    0.0000 C   0  0  0  0  0  0  0  0  0  0  0  0
    3.9987   -4.6068    0.0000 O   0  0  0  0  0  0  0  0  0  0  0  0
    0.0000   -2.3080    0.0000 S   0  0  0  0  0  0  0  0  0  0  0  0
  1  2  1  0  0  0  0
  1  6  1  0  0  0  0
  2  3  1  0  0  0  0
  2  9  2  0  0  0  0
  3  4  1  0  0  0  0
  4  5  2  0  0  0  0
  4  7  1  0  0  0  0
  5  6  1  0  0  0  0
  6  8  2  0  0  0  0
M  END
>  <ID>
11

>  <Formula>
C5H6N2OS

>  <FW>
142.1800

>  <NA28.Primary aromatic amine, hydroxyl amine and its derived esters (with restrictions)>
NO

>  <NA15.Isocyanate and isothiocyanate groups>
NO

>  <NA25.Aromatic nitroso group>
NO

>  <SAL_iss2_>
1.0

>  <NA20.(Poly) Halogenated Cycloalkanes (Nongenotoxic carcinogens)>
NO

>  <Proceed with QSAR6 and QSAR8?.User input>
NO

>  <Canc_iss2_>
3.0

>  <QSAR8.Carcinogenicity in rodents (mice, rats); aromatic amines>
NO

>  <NA30.Coumarins and Furocoumarins>
NO

>  <NA31b.Halogenated PAH (naphthalenes, biphenyls, diphenyls)  (Nongenotoxic carcinogens)>
NO

>  <NA22.Azide and triazene groups>
NO

>  <QSAR6,8 applicable?.Aromatic amine without sulfonic group on the same ring>
NO

>  <ar-N=CH2.Derived aromatic amines>
NO

>  <NA13.Hydrazine>
NO

>  <NA24.?,? unsaturated alkoxy (linear)>
NO

>  <NA28ter.Aromatic N-acyl amine>
NO

>  <Title>
iss2_356

>  <NA16.Alkyl carbamate and thiocarbamate>
NO

>  <Substance ID>
iss2_356

>  <Proceed with QSAR13?.User input>
NO

>  <NA2.Alkyl (C<5) or benzyl ester of sulphonic or phosphonic acid>
NO

>  <NA12.Quinones>
NO

>  <QSAR6.Mutagenic activity in Salmonella typhimurium TA100, with S9 metabolic activation; aromatic amines.>
NO

>  <aN=Na.Aromatic diazo>
NO

>  <NA29.Aromatic diazo>
NO

>  <NA7.Epoxides and aziridines>
NO

>  <NA4.Monohaloalkene>
NO

>  <NA18.Polycyclic Aromatic Hydrocarbons>
NO

>  <NA3.N-methylol derivatives>
NO

>  <NA23.Aliphatic N-nitro>
NO

>  <NA6.Propiolactones and propiosultones>
NO

>  <NA1.Acyl halides>
NO

>  <QSAR13.Mutagenic activity in Salmonella typhimurium TA100;  ?,?-unsaturated  aliphatic aldehydes.>
NO

>  <NA5.S or N mustard>
NO

>  <NA17.Thiocarbonyl (Nongenotoxic carcinogens)>
YES

>  <NA27.Nitro aromatic>
NO

>  <NA19.Heterocyclic Polycyclic Aromatic Hydrocarbons>
NO

>  <NA8.Aliphatic halogens>
NO

>  <NA14.Aliphatic azo and azoxy>
NO

>  <NA11.Simple aldehyde>
NO

>  <NA26.Aromatic ring N-oxide>
NO

>  <NA31a.Halogenated benzene  (Nongenotoxic carcinogens)>
NO

>  <QSAR13 applicable?.?,? unsaturated aldehyde>
NO

>  <NA9.Alkyl nitrite>
NO

>  <NA28bis.Aromatic mono- and dialkylamine>
NO

>  <NA21.Alkyl and aryl N-nitroso groups>
NO

>  <NA10.?,? unsaturated carbonyls>
NO

>  <NA31c.Halogenated dibenzodioxins  (Nongenotoxic carcinogens)>
NO

$$$$
iss2_380
  ACD/Labs1026071639

 42 49  0  0  0  0  0  0  0  0  1 V2000
    4.6696   -3.9408    0.0000 C   0  0  0  0  0  0  0  0  0  0  0  0
    5.4108   -4.9043    0.0000 C   0  0  0  0  0  0  0  0  0  0  0  0
    5.9667   -3.7678    0.0000 C   0  0  0  0  0  0  0  0  0  0  0  0
    3.8790   -4.9661    0.0000 C   0  0  0  0  0  0  0  0  0  0  0  0
    4.1631   -2.7425    0.0000 C   0  0  0  0  0  0  0  0  0  0  0  0
    7.1650   -5.8556    0.0000 C   0  0  0  0  0  0  0  0  0  0  0  0
    4.9414   -6.0161    0.0000 C   0  0  0  0  0  0  0  0  0  0  0  0
    6.9921   -4.5584    0.0000 C   0  0  0  0  0  0  0  0  0  0  0  0
    5.9173   -5.7197    0.0000 C   0  0  0  0  0  0  0  0  0  0  0  0
    4.0396   -6.2632    0.0000 C   0  0  0  0  0  0  0  0  0  0  0  0
    2.5819   -4.8055    0.0000 C   0  0  0  0  0  0  0  0  0  0  0  0
    2.8907   -2.5695    0.0000 C   0  0  0  0  0  0  0  0  0  0  0  0
    4.9537   -1.7048    0.0000 O   0  0  0  0  0  0  0  0  0  0  0  0
    6.3744   -6.8932    0.0000 C   0  0  0  0  0  0  0  0  0  0  0  0
    5.0773   -7.0538    0.0000 C   0  0  0  0  0  0  0  0  0  0  0  0
    3.6443   -5.8432    0.0000 O   0  0  0  0  0  0  0  0  0  0  0  0
    8.1162   -3.9037    0.0000 O   0  0  0  0  0  0  0  0  0  0  0  0
    7.5850   -6.7450    0.0000 C   0  0  0  0  0  0  0  0  0  0  0  0
    4.7808   -6.3497    0.0000 O   0  0  0  0  0  0  0  0  0  0  0  0
    2.9154   -6.9180    0.0000 O   0  0  0  0  0  0  0  0  0  0  0  0
    2.0877   -3.5949    0.0000 C   0  0  0  0  0  0  0  0  0  0  0  0
    1.8036   -5.8432    0.0000 O   0  0  0  0  0  0  0  0  0  0  0  0
    2.3842   -1.3589    0.0000 C   0  0  0  0  0  0  0  0  0  0  0  0
    5.6332   -7.8568    0.0000 C   0  0  0  0  0  0  0  0  0  0  0  0
    8.2398   -7.8568    0.0000 C   0  0  0  0  0  0  0  0  0  0  0  0
    0.8030   -3.4343    0.0000 C   0  0  0  0  0  0  0  0  0  0  0  0
    1.0871   -1.1983    0.0000 C   0  0  0  0  0  0  0  0  0  0  0  0
    3.1748   -0.3459    0.0000 O   0  0  0  0  0  0  0  0  0  0  0  0
    6.2756   -8.9933    0.0000 C   0  0  0  0  0  0  0  0  0  0  0  0
    4.3361   -7.8321    0.0000 O   0  0  0  0  0  0  0  0  0  0  0  0
    7.5850   -8.9933    0.0000 C   0  0  0  0  0  0  0  0  0  0  0  0
    9.5369   -7.8321    0.0000 O   0  0  0  0  0  0  0  0  0  0  0  0
    0.2965   -2.2360    0.0000 C   0  0  0  0  0  0  0  0  0  0  0  0
    0.0000   -4.4720    0.0000 O   0  0  0  0  0  0  0  0  0  0  0  0
    0.6053   -0.0000    0.0000 C   0  0  0  0  0  0  0  0  0  0  0  0
    5.6085  -10.1052    0.0000 C   0  0  0  0  0  0  0  0  0  0  0  0
    8.2274  -10.1299    0.0000 C   0  0  0  0  0  0  0  0  0  0  0  0
    6.2509  -11.2417    0.0000 C   0  0  0  0  0  0  0  0  0  0  0  0
    4.3237  -10.0928    0.0000 O   0  0  0  0  0  0  0  0  0  0  0  0
    7.5603  -11.2540    0.0000 C   0  0  0  0  0  0  0  0  0  0  0  0
    9.5245  -10.1422    0.0000 O   0  0  0  0  0  0  0  0  0  0  0  0
    5.5961  -12.3535    0.0000 C   0  0  0  0  0  0  0  0  0  0  0  0
  1  2  1  0  0  0  0
  1  3  1  0  0  0  0
  1  4  1  0  0  0  0
  1  5  1  0  0  0  0
  2  6  1  0  0  0  0
  2  7  1  0  0  0  0
  3  8  1  0  0  0  0
  3  9  1  0  0  0  0
  4 10  2  0  0  0  0
  4 11  1  0  0  0  0
  5 12  1  0  0  0  0
  5 13  2  0  0  0  0
  6 14  1  0  0  0  0
  6  8  1  0  0  0  0
  7 15  1  0  0  0  0
  7 16  1  0  0  0  0
  8 17  1  0  0  0  0
  9 18  2  0  0  0  0
  9 19  1  0  0  0  0
 10 20  1  0  0  0  0
 10 15  1  0  0  0  0
 11 21  1  0  0  0  0
 11 22  2  0  0  0  0
 12 23  1  0  0  0  0
 12 21  2  0  0  0  0
 14 24  1  0  0  0  0
 14 15  1  0  0  0  0
 14 18  1  0  0  0  0
 18 25  1  0  0  0  0
 21 26  1  0  0  0  0
 23 27  2  0  0  0  0
 23 28  1  0  0  0  0
 24 29  1  0  0  0  0
 24 30  2  0  0  0  0
 25 31  1  0  0  0  0
 25 32  2  0  0  0  0
 26 33  2  0  0  0  0
 26 34  1  0  0  0  0
 27 35  1  0  0  0  0
 27 33  1  0  0  0  0
 29 36  1  0  0  0  0
 29 31  2  0  0  0  0
 31 37  1  0  0  0  0
 36 38  2  0  0  0  0
 36 39  1  0  0  0  0
 37 40  2  0  0  0  0
 37 41  1  0  0  0  0
 38 42  1  0  0  0  0
 38 40  1  0  0  0  0
M  END
>  <ID>
12

>  <Formula>
C30H22O12

>  <FW>
574.4885

>  <NA28.Primary aromatic amine, hydroxyl amine and its derived esters (with restrictions)>
NO

>  <NA15.Isocyanate and isothiocyanate groups>
NO

>  <NA25.Aromatic nitroso group>
NO

>  <SAL_iss2_>
1.0

>  <NA20.(Poly) Halogenated Cycloalkanes (Nongenotoxic carcinogens)>
NO

>  <Proceed with QSAR6 and QSAR8?.User input>
NO

>  <Canc_iss2_>
3.0

>  <QSAR8.Carcinogenicity in rodents (mice, rats); aromatic amines>
NO

>  <NA30.Coumarins and Furocoumarins>
NO

>  <NA31b.Halogenated PAH (naphthalenes, biphenyls, diphenyls)  (Nongenotoxic carcinogens)>
NO

>  <NA22.Azide and triazene groups>
NO

>  <QSAR6,8 applicable?.Aromatic amine without sulfonic group on the same ring>
NO

>  <ar-N=CH2.Derived aromatic amines>
NO

>  <NA13.Hydrazine>
NO

>  <NA24.?,? unsaturated alkoxy (linear)>
NO

>  <NA28ter.Aromatic N-acyl amine>
NO

>  <Title>
iss2_380

>  <NA16.Alkyl carbamate and thiocarbamate>
NO

>  <Substance ID>
iss2_380

>  <Proceed with QSAR13?.User input>
NO

>  <NA2.Alkyl (C<5) or benzyl ester of sulphonic or phosphonic acid>
NO

>  <NA12.Quinones>
NO

>  <QSAR6.Mutagenic activity in Salmonella typhimurium TA100, with S9 metabolic activation; aromatic amines.>
NO

>  <aN=Na.Aromatic diazo>
NO

>  <NA29.Aromatic diazo>
NO

>  <NA7.Epoxides and aziridines>
NO

>  <NA4.Monohaloalkene>
NO

>  <NA18.Polycyclic Aromatic Hydrocarbons>
NO

>  <NA3.N-methylol derivatives>
NO

>  <NA23.Aliphatic N-nitro>
NO

>  <NA6.Propiolactones and propiosultones>
NO

>  <NA1.Acyl halides>
NO

>  <QSAR13.Mutagenic activity in Salmonella typhimurium TA100;  ?,?-unsaturated  aliphatic aldehydes.>
NO

>  <NA5.S or N mustard>
NO

>  <NA17.Thiocarbonyl (Nongenotoxic carcinogens)>
NO

>  <NA27.Nitro aromatic>
NO

>  <NA19.Heterocyclic Polycyclic Aromatic Hydrocarbons>
NO

>  <NA8.Aliphatic halogens>
NO

>  <NA14.Aliphatic azo and azoxy>
NO

>  <NA11.Simple aldehyde>
NO

>  <NA26.Aromatic ring N-oxide>
NO

>  <NA31a.Halogenated benzene  (Nongenotoxic carcinogens)>
NO

>  <QSAR13 applicable?.?,? unsaturated aldehyde>
NO

>  <NA9.Alkyl nitrite>
NO

>  <NA28bis.Aromatic mono- and dialkylamine>
NO

>  <NA21.Alkyl and aryl N-nitroso groups>
NO

>  <NA10.?,? unsaturated carbonyls>
YES

>  <NA31c.Halogenated dibenzodioxins  (Nongenotoxic carcinogens)>
NO

$$$$
iss2_408
  ACD/Labs1026071639

  5  4  0  0  0  0  0  0  0  0  1 V2000
    0.0000   -0.0000    0.0000 C   0  0  0  0  0  0  0  0  0  0  0  0
    1.3279   -0.0000    0.0000 C   0  0  0  0  0  0  0  0  0  0  0  0
    1.9859   -1.1525    0.0000 C   0  0  0  0  0  0  0  0  0  0  0  0
    3.3179   -1.1525    0.0000 C   0  0  0  0  0  0  0  0  0  0  0  0
    3.9878   -2.3049    0.0000 O   0  0  0  0  0  0  0  0  0  0  0  0
  1  2  1  0  0  0  0
  2  3  2  0  0  0  0
  3  4  1  0  0  0  0
  4  5  2  0  0  0  0
M  END
>  <ID>
13

>  <Formula>
C4H6O

>  <FW>
70.0898

>  <NA28.Primary aromatic amine, hydroxyl amine and its derived esters (with restrictions)>
NO

>  <NA15.Isocyanate and isothiocyanate groups>
NO

>  <NA25.Aromatic nitroso group>
NO

>  <SAL_iss2_>
3.0

>  <NA20.(Poly) Halogenated Cycloalkanes (Nongenotoxic carcinogens)>
NO

>  <Proceed with QSAR6 and QSAR8?.User input>
NO

>  <Canc_iss2_>
3.0

>  <QSAR8.Carcinogenicity in rodents (mice, rats); aromatic amines>
NO

>  <NA30.Coumarins and Furocoumarins>
NO

>  <NA31b.Halogenated PAH (naphthalenes, biphenyls, diphenyls)  (Nongenotoxic carcinogens)>
NO

>  <NA22.Azide and triazene groups>
NO

>  <QSAR6,8 applicable?.Aromatic amine without sulfonic group on the same ring>
NO

>  <ar-N=CH2.Derived aromatic amines>
NO

>  <NA13.Hydrazine>
NO

>  <NA24.?,? unsaturated alkoxy (linear)>
NO

>  <NA28ter.Aromatic N-acyl amine>
NO

>  <Title>
iss2_408

>  <NA16.Alkyl carbamate and thiocarbamate>
NO

>  <Substance ID>
iss2_408

>  <Proceed with QSAR13?.User input>
NO

>  <NA2.Alkyl (C<5) or benzyl ester of sulphonic or phosphonic acid>
NO

>  <NA12.Quinones>
NO

>  <QSAR6.Mutagenic activity in Salmonella typhimurium TA100, with S9 metabolic activation; aromatic amines.>
NO

>  <aN=Na.Aromatic diazo>
NO

>  <NA29.Aromatic diazo>
NO

>  <NA7.Epoxides and aziridines>
NO

>  <NA4.Monohaloalkene>
NO

>  <NA18.Polycyclic Aromatic Hydrocarbons>
NO

>  <NA3.N-methylol derivatives>
NO

>  <NA23.Aliphatic N-nitro>
NO

>  <NA6.Propiolactones and propiosultones>
NO

>  <NA1.Acyl halides>
NO

>  <QSAR13.Mutagenic activity in Salmonella typhimurium TA100;  ?,?-unsaturated  aliphatic aldehydes.>
YES

>  <NA5.S or N mustard>
NO

>  <NA17.Thiocarbonyl (Nongenotoxic carcinogens)>
NO

>  <NA27.Nitro aromatic>
NO

>  <NA19.Heterocyclic Polycyclic Aromatic Hydrocarbons>
NO

>  <NA8.Aliphatic halogens>
NO

>  <NA14.Aliphatic azo and azoxy>
NO

>  <NA11.Simple aldehyde>
NO

>  <NA26.Aromatic ring N-oxide>
NO

>  <NA31a.Halogenated benzene  (Nongenotoxic carcinogens)>
NO

>  <QSAR13 applicable?.?,? unsaturated aldehyde>
YES

>  <NA9.Alkyl nitrite>
NO

>  <NA28bis.Aromatic mono- and dialkylamine>
NO

>  <NA21.Alkyl and aryl N-nitroso groups>
NO

>  <NA10.?,? unsaturated carbonyls>
YES

>  <NA31c.Halogenated dibenzodioxins  (Nongenotoxic carcinogens)>
NO

$$$$
iss2_461
  ACD/Labs1026071639

 30 31  0  0  1  0  0  0  0  0  1 V2000
    8.9129   -6.5064    0.0000 C   0  0  0  0  0  0  0  0  0  0  0  0
    7.5581   -6.8718    0.0000 C   0  0  0  0  0  0  0  0  0  0  0  0
    6.5777   -5.8825    0.0000 C   0  0  0  0  0  0  0  0  0  0  0  0
    5.3745   -6.5688    0.0000 C   0  0  0  0  0  0  0  0  0  0  0  0
    3.9662   -6.5688    0.0000 C   0  0  0  0  0  0  0  0  0  0  0  0
    2.7630   -5.8825    0.0000 C   0  0  0  0  0  0  0  0  0  0  0  0
    2.0589   -4.6703    0.0000 C   0  0  0  0  0  0  0  0  0  0  0  0
    0.7041   -5.0269    0.0000 O   0  0  0  0  0  0  0  0  0  0  0  0
    2.0589   -3.2621    0.0000 O   0  0  0  0  0  0  0  0  0  0  0  0
    2.7630   -2.0589    0.0000 C   0  0  0  0  0  0  0  0  0  0  0  0
    3.9662   -1.3548    0.0000 C   0  0  0  0  0  0  0  0  0  0  0  0
    3.5384   -2.3084    0.0000 C   0  0  0  0  0  0  0  0  0  0  0  0
    3.8236   -3.3334    0.0000 C   0  0  0  0  0  0  0  0  0  0  0  0
    4.6793   -3.9306    0.0000 N   0  0  0  0  0  0  0  0  0  0  0  0
    5.7132   -3.8325    0.0000 C   0  0  0  0  0  0  0  0  0  0  0  0
    6.4618   -3.0928    0.0000 C   0  0  0  0  0  0  0  0  0  0  0  0
    6.5777   -2.0589    0.0000 C   0  0  0  0  0  0  0  0  0  0  0  0
    5.3745   -1.3548    0.0000 C   0  0  0  0  0  0  0  0  0  0  0  0
    5.7132   -0.0000    0.0000 O   0  0  0  0  0  0  0  0  0  0  0  0
    7.2640   -3.2621    0.0000 O   0  0  0  0  0  0  0  0  0  0  0  0
    7.2640   -4.6703    0.0000 C   0  0  0  0  0  0  0  0  0  0  0  0
    8.6188   -5.0269    0.0000 O   0  0  0  0  0  0  0  0  0  0  0  0
    4.3138   -5.2675    0.0000 C   0  0  0  0  0  0  0  0  0  0  0  0
    1.3637   -5.9984    0.0000 C   0  0  0  0  0  0  0  0  0  0  0  0
    2.2639   -7.1927    0.0000 O   0  0  0  0  0  0  0  0  0  0  0  0
    0.9002   -7.4423    0.0000 C   0  0  0  0  0  0  0  0  0  0  0  0
    0.4278   -8.7435    0.0000 O   0  0  0  0  0  0  0  0  0  0  0  0
    0.0000   -6.3549    0.0000 C   0  0  0  0  0  0  0  0  0  0  0  0
    4.5456   -7.8433    0.0000 C   0  0  0  0  0  0  0  0  0  0  0  0
    3.0660   -7.6562    0.0000 C   0  0  0  0  0  0  0  0  0  0  0  0
  1  2  2  0  0  0  0
  2  3  1  0  0  0  0
  3  4  2  0  0  0  0
  3 21  1  0  0  0  0
  4  5  1  0  0  0  0
  5  6  1  0  0  0  0
  5 29  1  0  0  0  0
  5 30  1  0  0  0  0
  6  7  1  0  0  0  0
  6 24  1  1  0  0  0
  6 25  1  6  0  0  0
  7  8  2  0  0  0  0
  7  9  1  0  0  0  0
  9 10  1  0  0  0  0
 10 11  1  0  0  0  0
 11 12  2  0  0  0  0
 11 18  1  0  0  0  0
 12 13  1  0  0  0  0
 13 14  1  0  0  0  0
 14 15  1  0  0  0  0
 14 23  1  0  0  0  0
 15 16  1  0  0  0  0
 16 17  1  0  0  0  0
 17 18  1  0  0  0  0
 17 20  1  6  0  0  0
 18 19  2  0  0  0  0
 20 21  1  0  0  0  0
 21 22  2  0  0  0  0
 25 26  1  0  0  0  0
 26 27  2  0  0  0  0
 26 28  1  0  0  0  0
M  END
>  <ID>
14

>  <Formula>
C22H29NO7

>  <FW>
419.4682

>  <NA28.Primary aromatic amine, hydroxyl amine and its derived esters (with restrictions)>
NO

>  <NA15.Isocyanate and isothiocyanate groups>
NO

>  <NA25.Aromatic nitroso group>
NO

>  <SAL_iss2_>
0.0

>  <NA20.(Poly) Halogenated Cycloalkanes (Nongenotoxic carcinogens)>
NO

>  <Proceed with QSAR6 and QSAR8?.User input>
NO

>  <Canc_iss2_>
3.0

>  <QSAR8.Carcinogenicity in rodents (mice, rats); aromatic amines>
NO

>  <NA30.Coumarins and Furocoumarins>
NO

>  <NA31b.Halogenated PAH (naphthalenes, biphenyls, diphenyls)  (Nongenotoxic carcinogens)>
NO

>  <NA22.Azide and triazene groups>
NO

>  <QSAR6,8 applicable?.Aromatic amine without sulfonic group on the same ring>
NO

>  <ar-N=CH2.Derived aromatic amines>
NO

>  <NA13.Hydrazine>
NO

>  <NA24.?,? unsaturated alkoxy (linear)>
NO

>  <NA28ter.Aromatic N-acyl amine>
NO

>  <Title>
iss2_461

>  <NA16.Alkyl carbamate and thiocarbamate>
NO

>  <Substance ID>
iss2_461

>  <Proceed with QSAR13?.User input>
NO

>  <NA2.Alkyl (C<5) or benzyl ester of sulphonic or phosphonic acid>
NO

>  <NA12.Quinones>
NO

>  <QSAR6.Mutagenic activity in Salmonella typhimurium TA100, with S9 metabolic activation; aromatic amines.>
NO

>  <aN=Na.Aromatic diazo>
NO

>  <NA29.Aromatic diazo>
NO

>  <NA7.Epoxides and aziridines>
NO

>  <NA4.Monohaloalkene>
NO

>  <NA18.Polycyclic Aromatic Hydrocarbons>
NO

>  <NA3.N-methylol derivatives>
NO

>  <NA23.Aliphatic N-nitro>
NO

>  <NA6.Propiolactones and propiosultones>
NO

>  <NA1.Acyl halides>
NO

>  <QSAR13.Mutagenic activity in Salmonella typhimurium TA100;  ?,?-unsaturated  aliphatic aldehydes.>
NO

>  <NA5.S or N mustard>
NO

>  <NA17.Thiocarbonyl (Nongenotoxic carcinogens)>
NO

>  <NA27.Nitro aromatic>
NO

>  <NA19.Heterocyclic Polycyclic Aromatic Hydrocarbons>
NO

>  <NA8.Aliphatic halogens>
NO

>  <NA14.Aliphatic azo and azoxy>
NO

>  <NA11.Simple aldehyde>
NO

>  <NA26.Aromatic ring N-oxide>
NO

>  <NA31a.Halogenated benzene  (Nongenotoxic carcinogens)>
NO

>  <QSAR13 applicable?.?,? unsaturated aldehyde>
NO

>  <NA9.Alkyl nitrite>
NO

>  <NA28bis.Aromatic mono- and dialkylamine>
NO

>  <NA21.Alkyl and aryl N-nitroso groups>
NO

>  <NA10.?,? unsaturated carbonyls>
NO

>  <NA31c.Halogenated dibenzodioxins  (Nongenotoxic carcinogens)>
NO

$$$$
iss2_470
  ACD/Labs1026071639

 25 27  0  0  0  0  0  0  0  0  2 V2000
    7.6525   -3.4472    0.0000 C   0  0  0  0  0  0  0  0  0  0  0  0
    8.3248   -2.3029    0.0000 N   0  0  0  0  0  0  0  0  0  0  0  0
    9.6550   -4.6058    0.0000 C   0  0  0  0  0  0  0  0  0  0  0  0
    8.3248   -4.6058    0.0000 C   0  0  0  0  0  0  0  0  0  0  0  0
    2.2886   -5.2638    0.0000 C   0  0  0  0  0  0  0  0  0  0  0  0
    2.2886   -3.9335    0.0000 C   0  0  0  0  0  0  0  0  0  0  0  0
    3.5616   -3.5330    0.0000 O   0  0  0  0  0  0  0  0  0  0  0  0
    4.3483   -4.6058    0.0000 C   0  0  0  0  0  0  0  0  0  0  0  0
    3.5616   -5.6786    0.0000 C   0  0  0  0  0  0  0  0  0  0  0  0
    5.6643   -4.6058    0.0000 C   0  0  0  0  0  0  0  0  0  0  0  0
    6.3222   -3.4472    0.0000 C   0  0  0  0  0  0  0  0  0  0  0  0
   10.3130   -3.4472    0.0000 C   0  0  0  0  0  0  0  0  0  0  0  0
    9.6550   -2.3029    0.0000 C   0  0  0  0  0  0  0  0  0  0  0  0
   10.3130   -1.1443    0.0000 N   0  0  0  0  0  0  0  0  0  0  0  0
   11.6432   -1.1443    0.0000 C   0  0  0  0  0  0  0  0  0  0  0  0
   12.3155   -2.3029    0.0000 C   0  0  0  0  0  0  0  0  0  0  0  0
   11.6432   -3.4472    0.0000 C   0  0  0  0  0  0  0  0  0  0  0  0
    9.6550   -0.0000    0.0000 C   0  0  0  0  0  0  0  0  0  0  0  0
   12.3155   -4.6058    0.0000 O   0  0  0  0  0  0  0  0  0  0  0  0
    1.2158   -3.1611    0.0000 N   0  3  0  0  0  0  0  0  0  0  0  0
    1.3589   -1.8309    0.0000 O   0  5  0  0  0  0  0  0  0  0  0  0
    0.0000   -3.6904    0.0000 O   0  0  0  0  0  0  0  0  0  0  0  0
   13.6457   -2.3029    0.0000 C   0  0  0  0  0  0  0  0  0  0  0  0
   14.3037   -3.4472    0.0000 O   0  0  0  0  0  0  0  0  0  0  0  0
   14.3037   -1.1443    0.0000 O   0  0  0  0  0  0  0  0  0  0  0  0
  1  2  2  0  0  0  0
  1  4  1  0  0  0  0
  1 11  1  0  0  0  0
  2 13  1  0  0  0  0
  3 12  1  0  0  0  0
  3  4  2  0  0  0  0
  5  6  2  0  0  0  0
  5  9  1  0  0  0  0
  6  7  1  0  0  0  0
  6 20  1  0  0  0  0
  7  8  1  0  0  0  0
  8  9  2  0  0  0  0
  8 10  1  0  0  0  0
 10 11  2  0  0  0  0
 12 13  2  0  0  0  0
 12 17  1  0  0  0  0
 13 14  1  0  0  0  0
 14 15  1  0  0  0  0
 14 18  1  0  0  0  0
 15 16  2  0  0  0  0
 16 17  1  0  0  0  0
 16 23  1  0  0  0  0
 17 19  2  0  0  0  0
 20 21  1  0  0  0  0
 20 22  2  0  0  0  0
 23 24  1  0  0  0  0
 23 25  2  0  0  0  0
M  CHG  2  20   1  21  -1
M  END
>  <ID>
15

>  <Formula>
C16H11N3O6

>  <FW>
341.2752

>  <NA28.Primary aromatic amine, hydroxyl amine and its derived esters (with restrictions)>
NO

>  <NA15.Isocyanate and isothiocyanate groups>
NO

>  <NA25.Aromatic nitroso group>
NO

>  <SAL_iss2_>
0.0

>  <NA20.(Poly) Halogenated Cycloalkanes (Nongenotoxic carcinogens)>
NO

>  <Proceed with QSAR6 and QSAR8?.User input>
NO

>  <Canc_iss2_>
3.0

>  <QSAR8.Carcinogenicity in rodents (mice, rats); aromatic amines>
NO

>  <NA30.Coumarins and Furocoumarins>
NO

>  <NA31b.Halogenated PAH (naphthalenes, biphenyls, diphenyls)  (Nongenotoxic carcinogens)>
NO

>  <NA22.Azide and triazene groups>
NO

>  <QSAR6,8 applicable?.Aromatic amine without sulfonic group on the same ring>
NO

>  <ar-N=CH2.Derived aromatic amines>
NO

>  <NA13.Hydrazine>
NO

>  <NA24.?,? unsaturated alkoxy (linear)>
NO

>  <NA28ter.Aromatic N-acyl amine>
NO

>  <Title>
iss2_470

>  <NA16.Alkyl carbamate and thiocarbamate>
NO

>  <Substance ID>
iss2_470

>  <Proceed with QSAR13?.User input>
NO

>  <NA2.Alkyl (C<5) or benzyl ester of sulphonic or phosphonic acid>
NO

>  <NA12.Quinones>
NO

>  <QSAR6.Mutagenic activity in Salmonella typhimurium TA100, with S9 metabolic activation; aromatic amines.>
NO

>  <aN=Na.Aromatic diazo>
NO

>  <NA29.Aromatic diazo>
NO

>  <NA7.Epoxides and aziridines>
NO

>  <NA4.Monohaloalkene>
NO

>  <NA18.Polycyclic Aromatic Hydrocarbons>
NO

>  <NA3.N-methylol derivatives>
NO

>  <NA23.Aliphatic N-nitro>
NO

>  <NA6.Propiolactones and propiosultones>
NO

>  <NA1.Acyl halides>
NO

>  <QSAR13.Mutagenic activity in Salmonella typhimurium TA100;  ?,?-unsaturated  aliphatic aldehydes.>
NO

>  <NA5.S or N mustard>
NO

>  <NA17.Thiocarbonyl (Nongenotoxic carcinogens)>
NO

>  <NA27.Nitro aromatic>
YES

>  <NA19.Heterocyclic Polycyclic Aromatic Hydrocarbons>
NO

>  <NA8.Aliphatic halogens>
NO

>  <NA14.Aliphatic azo and azoxy>
NO

>  <NA11.Simple aldehyde>
NO

>  <NA26.Aromatic ring N-oxide>
NO

>  <NA31a.Halogenated benzene  (Nongenotoxic carcinogens)>
NO

>  <QSAR13 applicable?.?,? unsaturated aldehyde>
NO

>  <NA9.Alkyl nitrite>
NO

>  <NA28bis.Aromatic mono- and dialkylamine>
NO

>  <NA21.Alkyl and aryl N-nitroso groups>
NO

>  <NA10.?,? unsaturated carbonyls>
NO

>  <NA31c.Halogenated dibenzodioxins  (Nongenotoxic carcinogens)>
NO

$$$$
iss2_536
  ACD/Labs1026071639

 29 32  0  0  1  0  0  0  0  0  1 V2000
    2.3564   -7.5405    0.0000 C   0  0  0  0  0  0  0  0  0  0  0  0
    1.2627   -6.7669    0.0000 C   0  0  0  0  0  0  0  0  0  0  0  0
    3.4324   -6.7669    0.0000 C   0  0  0  0  0  0  0  0  0  0  0  0
    2.3564   -8.8922    0.0000 C   0  0  0  0  0  0  0  0  0  0  0  0
    0.0000   -7.1849    0.0000 O   0  0  0  0  0  0  0  0  0  0  0  0
    0.4179   -5.9311    0.0000 O   0  0  0  0  0  0  0  0  0  0  0  0
    3.0322   -5.4865    0.0000 C   0  0  0  0  0  0  0  0  0  0  0  0
    1.6806   -5.4865    0.0000 C   0  0  0  0  0  0  0  0  0  0  0  0
    0.8448   -4.4283    0.0000 C   0  0  0  0  0  0  0  0  0  0  0  0
    1.1471   -3.1300    0.0000 C   0  0  0  0  0  0  0  0  0  0  0  0
    2.3564   -2.5432    0.0000 C   0  0  0  0  0  0  0  0  0  0  0  0
    3.8681   -4.4283    0.0000 C   0  0  0  0  0  0  0  0  0  0  0  0
    3.5746   -3.1300    0.0000 C   0  0  0  0  0  0  0  0  0  0  0  0
    6.1267   -3.9214    0.0000 C   0  0  0  0  0  0  0  0  0  0  0  0
    5.1486   -4.8373    0.0000 C   0  0  0  0  0  0  0  0  0  0  0  0
    4.3749   -5.6732    0.0000 O   0  0  0  0  0  0  0  0  0  0  0  0
    5.8333   -2.6143    0.0000 C   0  0  0  0  0  0  0  0  0  0  0  0
    4.5528   -2.2230    0.0000 C   0  0  0  0  0  0  0  0  0  0  0  0
    5.5398   -1.3071    0.0000 C   0  0  0  0  0  0  0  0  0  0  0  0
    5.2286   -0.0000    0.0000 C   0  0  0  0  0  0  0  0  0  0  0  0
    6.5179   -0.3913    0.0000 C   0  0  0  0  0  0  0  0  0  0  0  0
    7.1404   -2.3209    0.0000 O   0  0  0  0  0  0  0  0  0  0  0  0
    7.4072   -4.3127    0.0000 O   0  0  0  0  0  0  0  0  0  0  0  0
    0.0978   -2.2942    0.0000 C   0  0  0  0  0  0  0  0  0  0  0  0
    0.2934   -0.9692    0.0000 O   0  0  0  0  0  0  0  0  0  0  0  0
    5.4420   -6.1445    0.0000 C   0  0  0  0  0  0  0  0  0  0  0  0
    3.6369   -1.2360    0.0000 H   0  0  0  0  0  0  0  0  0  0  0  0
    3.4857   -1.7962    0.0000 H   0  0  0  0  0  0  0  0  0  0  0  0
    3.8414   -6.0467    0.0000 H   0  0  0  0  0  0  0  0  0  0  0  0
  1  2  1  0  0  0  0
  1  3  2  0  0  0  0
  1  4  1  0  0  0  0
  2  8  1  0  0  0  0
  2  5  2  0  0  0  0
  3  7  1  0  0  0  0
  8  6  1  1  0  0  0
  7  8  1  0  0  0  0
 12  7  1  1  0  0  0
  7 29  1  6  0  0  0
  8  9  1  0  0  0  0
  9 10  1  0  0  0  0
 10 11  2  0  0  0  0
 10 24  1  0  0  0  0
 11 13  1  0  0  0  0
 12 13  1  0  0  0  0
 12 15  1  0  0  0  0
 16 12  1  6  0  0  0
 13 18  1  0  0  0  0
 13 28  1  1  0  0  0
 14 17  1  0  0  0  0
 14 15  1  0  0  0  0
 14 23  1  1  0  0  0
 15 26  1  6  0  0  0
 17 18  1  0  0  0  0
 17 19  1  0  0  0  0
 17 22  1  6  0  0  0
 18 19  1  0  0  0  0
 18 27  1  6  0  0  0
 19 20  1  0  0  0  0
 19 21  1  0  0  0  0
 24 25  1  0  0  0  0
M  END
>  <ID>
16

>  <Formula>
C20H28O6

>  <FW>
364.4327

>  <NA28.Primary aromatic amine, hydroxyl amine and its derived esters (with restrictions)>
NO

>  <NA15.Isocyanate and isothiocyanate groups>
NO

>  <NA25.Aromatic nitroso group>
NO

>  <SAL_iss2_>
0.0

>  <NA20.(Poly) Halogenated Cycloalkanes (Nongenotoxic carcinogens)>
NO

>  <Proceed with QSAR6 and QSAR8?.User input>
NO

>  <Canc_iss2_>
3.0

>  <QSAR8.Carcinogenicity in rodents (mice, rats); aromatic amines>
NO

>  <NA30.Coumarins and Furocoumarins>
NO

>  <NA31b.Halogenated PAH (naphthalenes, biphenyls, diphenyls)  (Nongenotoxic carcinogens)>
NO

>  <NA22.Azide and triazene groups>
NO

>  <QSAR6,8 applicable?.Aromatic amine without sulfonic group on the same ring>
NO

>  <ar-N=CH2.Derived aromatic amines>
NO

>  <NA13.Hydrazine>
NO

>  <NA24.?,? unsaturated alkoxy (linear)>
NO

>  <NA28ter.Aromatic N-acyl amine>
NO

>  <Title>
iss2_536

>  <NA16.Alkyl carbamate and thiocarbamate>
NO

>  <Substance ID>
iss2_536

>  <Proceed with QSAR13?.User input>
NO

>  <NA2.Alkyl (C<5) or benzyl ester of sulphonic or phosphonic acid>
NO

>  <NA12.Quinones>
NO

>  <QSAR6.Mutagenic activity in Salmonella typhimurium TA100, with S9 metabolic activation; aromatic amines.>
NO

>  <aN=Na.Aromatic diazo>
NO

>  <NA29.Aromatic diazo>
NO

>  <NA7.Epoxides and aziridines>
NO

>  <NA4.Monohaloalkene>
NO

>  <NA18.Polycyclic Aromatic Hydrocarbons>
NO

>  <NA3.N-methylol derivatives>
NO

>  <NA23.Aliphatic N-nitro>
NO

>  <NA6.Propiolactones and propiosultones>
NO

>  <NA1.Acyl halides>
NO

>  <QSAR13.Mutagenic activity in Salmonella typhimurium TA100;  ?,?-unsaturated  aliphatic aldehydes.>
NO

>  <NA5.S or N mustard>
NO

>  <NA17.Thiocarbonyl (Nongenotoxic carcinogens)>
NO

>  <NA27.Nitro aromatic>
NO

>  <NA19.Heterocyclic Polycyclic Aromatic Hydrocarbons>
NO

>  <NA8.Aliphatic halogens>
NO

>  <NA14.Aliphatic azo and azoxy>
NO

>  <NA11.Simple aldehyde>
NO

>  <NA26.Aromatic ring N-oxide>
NO

>  <NA31a.Halogenated benzene  (Nongenotoxic carcinogens)>
NO

>  <QSAR13 applicable?.?,? unsaturated aldehyde>
NO

>  <NA9.Alkyl nitrite>
NO

>  <NA28bis.Aromatic mono- and dialkylamine>
NO

>  <NA21.Alkyl and aryl N-nitroso groups>
NO

>  <NA10.?,? unsaturated carbonyls>
YES

>  <NA31c.Halogenated dibenzodioxins  (Nongenotoxic carcinogens)>
NO

$$$$
iss2_540
  ACD/Labs1026071639

 54 60  0  0  1  0  0  0  0  0  1 V2000
    2.2510   -6.4470    0.0000 C   0  0  0  0  0  0  0  0  0  0  0  0
    1.1364   -5.7914    0.0000 C   0  0  0  0  0  0  0  0  0  0  0  0
    1.1364   -4.4801    0.0000 C   0  0  0  0  0  0  0  0  0  0  0  0
    3.4093   -5.7914    0.0000 C   0  0  0  0  0  0  0  0  0  0  0  0
    3.4093   -4.4801    0.0000 C   0  0  0  0  0  0  0  0  0  0  0  0
    2.2510   -3.8245    0.0000 C   0  0  0  0  0  0  0  0  0  0  0  0
    2.2510   -2.5132    0.0000 C   0  0  0  0  0  0  0  0  0  0  0  0
    3.4093   -1.8795    0.0000 C   0  0  0  0  0  0  0  0  0  0  0  0
    4.5238   -3.8245    0.0000 C   0  0  0  0  0  0  0  0  0  0  0  0
    4.5238   -2.5132    0.0000 C   0  0  0  0  0  0  0  0  0  0  0  0
    6.7967   -3.8245    0.0000 C   0  0  0  0  0  0  0  0  0  0  0  0
    5.6603   -4.4801    0.0000 C   0  0  0  0  0  0  0  0  0  0  0  0
    6.7967   -2.5132    0.0000 C   0  0  0  0  0  0  0  0  0  0  0  0
    5.6603   -1.8795    0.0000 C   0  0  0  0  0  0  0  0  0  0  0  0
    5.9444   -0.5901    0.0000 C   0  0  0  0  0  0  0  0  0  0  0  0
    7.2338   -0.4371    0.0000 C   0  0  0  0  0  0  0  0  0  0  0  0
    7.7801   -1.6391    0.0000 C   0  0  0  0  0  0  0  0  0  0  0  0
    0.0000   -6.4470    0.0000 O   0  0  0  0  0  0  0  0  0  0  0  0
    8.0205   -2.9722    0.0000 C   0  0  0  0  0  0  0  0  0  0  0  0
    8.7417   -2.5132    0.0000 C   0  0  0  0  0  0  0  0  0  0  0  0
    9.0258   -1.2457    0.0000 O   0  0  0  0  0  0  0  0  0  0  0  0
    9.7252   -3.3874    0.0000 C   0  0  0  0  0  0  0  0  0  0  0  0
    4.5238   -5.1358    0.0000 H   0  0  0  0  0  0  0  0  0  0  0  0
    4.6550   -1.0272    0.0000 H   0  0  0  0  0  0  0  0  0  0  0  0
    4.5238   -1.2020    0.0000 H   0  0  0  0  0  0  0  0  0  0  0  0
   13.5934   -7.3431    0.0000 C   0  0  0  0  0  0  0  0  0  0  0  0
   12.4788   -6.6874    0.0000 C   0  0  0  0  0  0  0  0  0  0  0  0
   12.4788   -5.3980    0.0000 C   0  0  0  0  0  0  0  0  0  0  0  0
   14.7298   -6.6874    0.0000 C   0  0  0  0  0  0  0  0  0  0  0  0
   14.7298   -5.3980    0.0000 C   0  0  0  0  0  0  0  0  0  0  0  0
   13.5934   -4.7205    0.0000 C   0  0  0  0  0  0  0  0  0  0  0  0
   13.5934   -3.4093    0.0000 C   0  0  0  0  0  0  0  0  0  0  0  0
   14.7298   -2.7755    0.0000 C   0  0  0  0  0  0  0  0  0  0  0  0
   15.8662   -4.7205    0.0000 C   0  0  0  0  0  0  0  0  0  0  0  0
   15.8662   -3.4093    0.0000 C   0  0  0  0  0  0  0  0  0  0  0  0
   18.1391   -4.7205    0.0000 C   0  0  0  0  0  0  0  0  0  0  0  0
   17.0027   -5.3980    0.0000 C   0  0  0  0  0  0  0  0  0  0  0  0
   18.1391   -3.4093    0.0000 C   0  0  0  0  0  0  0  0  0  0  0  0
   17.0027   -2.7755    0.0000 C   0  0  0  0  0  0  0  0  0  0  0  0
   17.2649   -1.4861    0.0000 C   0  0  0  0  0  0  0  0  0  0  0  0
   18.5762   -1.3550    0.0000 C   0  0  0  0  0  0  0  0  0  0  0  0
   19.1007   -2.5351    0.0000 C   0  0  0  0  0  0  0  0  0  0  0  0
   11.3424   -7.3431    0.0000 O   0  0  0  0  0  0  0  0  0  0  0  0
   19.3629   -3.8682    0.0000 C   0  0  0  0  0  0  0  0  0  0  0  0
   20.0841   -3.4093    0.0000 C   0  0  0  0  0  0  0  0  0  0  0  0
   20.3464   -2.1417    0.0000 O   0  0  0  0  0  0  0  0  0  0  0  0
   21.0457   -4.3053    0.0000 C   0  0  0  0  0  0  0  0  0  0  0  0
   20.6305   -0.8742    0.0000 C   0  0  0  0  0  0  0  0  0  0  0  0
   19.6470   -0.0000    0.0000 O   0  0  0  0  0  0  0  0  0  0  0  0
   21.8543   -0.4589    0.0000 C   0  0  0  0  0  0  0  0  0  0  0  0
   15.8662   -6.0318    0.0000 H   0  0  0  0  0  0  0  0  0  0  0  0
   15.8662   -2.1199    0.0000 H   0  0  0  0  0  0  0  0  0  0  0  0
   15.8662   -7.3431    0.0000 H   0  0  0  0  0  0  0  0  0  0  0  0
   15.9974   -1.9232    0.0000 H   0  0  0  0  0  0  0  0  0  0  0  0
  1  2  2  0  0  0  0
  1  4  1  0  0  0  0
  2  3  1  0  0  0  0
  2 18  1  0  0  0  0
  3  6  2  0  0  0  0
  4  5  2  0  0  0  0
  5  6  1  0  0  0  0
  5  9  1  0  0  0  0
  6  7  1  0  0  0  0
  7  8  1  0  0  0  0
  8 10  1  0  0  0  0
  9 10  1  0  0  0  0
  9 12  1  0  0  0  0
  9 23  1  6  0  0  0
 10 14  1  0  0  0  0
 10 25  1  1  0  0  0
 11 13  1  0  0  0  0
 11 12  1  0  0  0  0
 13 14  1  0  0  0  0
 13 17  1  0  0  0  0
 13 19  1  1  0  0  0
 14 15  1  0  0  0  0
 14 24  1  6  0  0  0
 15 16  1  0  0  0  0
 16 17  1  0  0  0  0
 17 20  1  6  0  0  0
 17 21  1  1  0  0  0
 20 22  3  0  0  0  0
 26 27  1  0  0  0  0
 26 29  1  0  0  0  0
 27 28  1  0  0  0  0
 27 43  2  0  0  0  0
 28 31  2  0  0  0  0
 29 30  1  0  0  0  0
 30 31  1  0  0  0  0
 30 34  1  0  0  0  0
 30 51  1  1  0  0  0
 31 32  1  0  0  0  0
 32 33  1  0  0  0  0
 33 35  1  0  0  0  0
 34 35  1  0  0  0  0
 34 37  1  0  0  0  0
 34 53  1  6  0  0  0
 35 39  1  0  0  0  0
 35 52  1  1  0  0  0
 36 38  1  0  0  0  0
 36 37  1  0  0  0  0
 38 39  1  0  0  0  0
 38 42  1  0  0  0  0
 38 44  1  1  0  0  0
 39 40  1  0  0  0  0
 39 54  1  6  0  0  0
 40 41  1  0  0  0  0
 41 42  1  0  0  0  0
 42 45  1  6  0  0  0
 42 46  1  1  0  0  0
 45 47  3  0  0  0  0
 46 48  1  0  0  0  0
 48 49  2  0  0  0  0
 48 50  1  0  0  0  0
M  END
>  <ID>
17

>  <Formula>
C42H52O5

>  <FW>
636.8593

>  <NA28.Primary aromatic amine, hydroxyl amine and its derived esters (with restrictions)>
NO

>  <NA15.Isocyanate and isothiocyanate groups>
NO

>  <NA25.Aromatic nitroso group>
NO

>  <SAL_iss2_>
0.0

>  <NA20.(Poly) Halogenated Cycloalkanes (Nongenotoxic carcinogens)>
NO

>  <Proceed with QSAR6 and QSAR8?.User input>
NO

>  <Canc_iss2_>
3.0

>  <QSAR8.Carcinogenicity in rodents (mice, rats); aromatic amines>
NO

>  <NA30.Coumarins and Furocoumarins>
NO

>  <NA31b.Halogenated PAH (naphthalenes, biphenyls, diphenyls)  (Nongenotoxic carcinogens)>
NO

>  <NA22.Azide and triazene groups>
NO

>  <QSAR6,8 applicable?.Aromatic amine without sulfonic group on the same ring>
NO

>  <ar-N=CH2.Derived aromatic amines>
NO

>  <NA13.Hydrazine>
NO

>  <NA24.?,? unsaturated alkoxy (linear)>
NO

>  <NA28ter.Aromatic N-acyl amine>
NO

>  <Title>
iss2_540

>  <NA16.Alkyl carbamate and thiocarbamate>
NO

>  <Substance ID>
iss2_540

>  <Proceed with QSAR13?.User input>
NO

>  <NA2.Alkyl (C<5) or benzyl ester of sulphonic or phosphonic acid>
NO

>  <NA12.Quinones>
NO

>  <QSAR6.Mutagenic activity in Salmonella typhimurium TA100, with S9 metabolic activation; aromatic amines.>
NO

>  <aN=Na.Aromatic diazo>
NO

>  <NA29.Aromatic diazo>
NO

>  <NA7.Epoxides and aziridines>
NO

>  <NA4.Monohaloalkene>
NO

>  <NA18.Polycyclic Aromatic Hydrocarbons>
NO

>  <NA3.N-methylol derivatives>
NO

>  <NA23.Aliphatic N-nitro>
NO

>  <NA6.Propiolactones and propiosultones>
NO

>  <NA1.Acyl halides>
NO

>  <NA5.S or N mustard>
NO

>  <NA17.Thiocarbonyl (Nongenotoxic carcinogens)>
NO

>  <NA27.Nitro aromatic>
NO

>  <NA19.Heterocyclic Polycyclic Aromatic Hydrocarbons>
NO

>  <NA8.Aliphatic halogens>
NO

>  <NA14.Aliphatic azo and azoxy>
NO

>  <NA11.Simple aldehyde>
NO

>  <NA26.Aromatic ring N-oxide>
NO

>  <NA31a.Halogenated benzene  (Nongenotoxic carcinogens)>
NO

>  <QSAR13 applicable?.?,? unsaturated aldehyde>
NO

>  <NA9.Alkyl nitrite>
NO

>  <NA28bis.Aromatic mono- and dialkylamine>
NO

>  <NA21.Alkyl and aryl N-nitroso groups>
NO

>  <NA10.?,? unsaturated carbonyls>
YES

>  <NA31c.Halogenated dibenzodioxins  (Nongenotoxic carcinogens)>
NO

$$$$
iss2_551
  ACD/Labs1026071639

 47 51  0  0  1  0  0  0  0  0  1 V2000
    9.2419   -4.2230    0.0000 C   0  0  0  0  0  0  0  0  0  0  0  0
    9.5180   -2.9236    0.0000 C   0  0  0  0  0  0  0  0  0  0  0  0
   11.7594   -3.3946    0.0000 C   0  0  0  0  0  0  0  0  0  0  0  0
   11.4833   -4.6940    0.0000 C   0  0  0  0  0  0  0  0  0  0  0  0
   10.7687   -2.5176    0.0000 C   0  0  0  0  0  0  0  0  0  0  0  0
   10.2327   -5.1163    0.0000 C   0  0  0  0  0  0  0  0  0  0  0  0
    7.9750   -6.8867    0.0000 C   0  0  0  0  0  0  0  0  0  0  0  0
    7.9750   -8.2024    0.0000 C   0  0  0  0  0  0  0  0  0  0  0  0
    6.8218   -8.8683    0.0000 C   0  0  0  0  0  0  0  0  0  0  0  0
    6.8218   -6.2208    0.0000 C   0  0  0  0  0  0  0  0  0  0  0  0
    5.6848   -6.8867    0.0000 C   0  0  0  0  0  0  0  0  0  0  0  0
    5.6848   -8.2024    0.0000 C   0  0  0  0  0  0  0  0  0  0  0  0
    4.5316   -8.8683    0.0000 C   0  0  0  0  0  0  0  0  0  0  0  0
    3.3946   -8.2024    0.0000 C   0  0  0  0  0  0  0  0  0  0  0  0
    4.5316   -6.2208    0.0000 C   0  0  0  0  0  0  0  0  0  0  0  0
    3.3946   -6.8867    0.0000 C   0  0  0  0  0  0  0  0  0  0  0  0
    3.3946   -4.2392    0.0000 C   0  0  0  0  0  0  0  0  0  0  0  0
    4.5316   -4.9052    0.0000 C   0  0  0  0  0  0  0  0  0  0  0  0
    2.2414   -4.9052    0.0000 C   0  0  0  0  0  0  0  0  0  0  0  0
    2.2414   -6.2208    0.0000 C   0  0  0  0  0  0  0  0  0  0  0  0
    0.9908   -6.6269    0.0000 C   0  0  0  0  0  0  0  0  0  0  0  0
    0.2112   -5.5711    0.0000 C   0  0  0  0  0  0  0  0  0  0  0  0
    0.9908   -4.4829    0.0000 C   0  0  0  0  0  0  0  0  0  0  0  0
    9.1119   -8.8683    0.0000 O   0  0  0  0  0  0  0  0  0  0  0  0
    5.6848   -5.9284    0.0000 C   0  0  0  0  0  0  0  0  0  0  0  0
    5.4087   -4.5154    0.0000 O   0  0  0  0  0  0  0  0  0  0  0  0
    2.2902   -3.8007    0.0000 C   0  0  0  0  0  0  0  0  0  0  0  0
    0.0000   -3.6058    0.0000 O   0  0  0  0  0  0  0  0  0  0  0  0
    1.2669   -3.1997    0.0000 C   0  0  0  0  0  0  0  0  0  0  0  0
    0.2761   -2.3064    0.0000 O   0  0  0  0  0  0  0  0  0  0  0  0
    2.5176   -2.7937    0.0000 C   0  0  0  0  0  0  0  0  0  0  0  0
    3.5083   -3.6708    0.0000 O   0  0  0  0  0  0  0  0  0  0  0  0
    4.7590   -3.2647    0.0000 C   0  0  0  0  0  0  0  0  0  0  0  0
    5.0351   -1.9653    0.0000 O   0  0  0  0  0  0  0  0  0  0  0  0
    5.7498   -4.1418    0.0000 C   0  0  0  0  0  0  0  0  0  0  0  0
    7.0004   -3.7357    0.0000 C   0  0  0  0  0  0  0  0  0  0  0  0
    7.9912   -4.6291    0.0000 C   0  0  0  0  0  0  0  0  0  0  0  0
   13.0101   -2.9886    0.0000 N   0  0  0  0  0  0  0  0  0  0  0  0
   13.2862   -1.7054    0.0000 C   0  0  0  0  0  0  0  0  0  0  0  0
   14.0009   -3.8819    0.0000 C   0  0  0  0  0  0  0  0  0  0  0  0
   14.5531   -1.2831    0.0000 C   0  0  0  0  0  0  0  0  0  0  0  0
   14.8292   -0.0000    0.0000 Cl  0  0  0  0  0  0  0  0  0  0  0  0
   15.2678   -3.4596    0.0000 C   0  0  0  0  0  0  0  0  0  0  0  0
   16.2423   -4.3529    0.0000 Cl  0  0  0  0  0  0  0  0  0  0  0  0
    2.2414   -7.5527    0.0000 H   0  0  0  0  0  0  0  0  0  0  0  0
    6.8218   -4.9052    0.0000 H   0  0  0  0  0  0  0  0  0  0  0  0
    2.0140   -7.5202    0.0000 H   0  0  0  0  0  0  0  0  0  0  0  0
  1  2  2  0  0  0  0
  1  6  1  0  0  0  0
  1 37  1  0  0  0  0
  2  5  1  0  0  0  0
  3  4  1  0  0  0  0
  3  5  2  0  0  0  0
  3 38  1  0  0  0  0
  4  6  2  0  0  0  0
  7  8  1  0  0  0  0
  7 10  2  0  0  0  0
  8  9  1  0  0  0  0
  8 24  2  0  0  0  0
  9 12  2  0  0  0  0
 10 11  1  0  0  0  0
 11 12  1  0  0  0  0
 11 15  1  0  0  0  0
 11 25  1  1  0  0  0
 12 13  1  0  0  0  0
 13 14  1  0  0  0  0
 14 16  1  0  0  0  0
 15 16  1  0  0  0  0
 15 18  1  0  0  0  0
 15 46  1  6  0  0  0
 16 20  1  0  0  0  0
 16 45  1  1  0  0  0
 17 19  1  0  0  0  0
 17 18  1  0  0  0  0
 18 26  1  1  0  0  0
 19 20  1  0  0  0  0
 19 23  1  0  0  0  0
 19 27  1  1  0  0  0
 20 21  1  0  0  0  0
 20 47  1  6  0  0  0
 21 22  1  0  0  0  0
 22 23  1  0  0  0  0
 23 28  1  6  0  0  0
 23 29  1  1  0  0  0
 29 30  2  0  0  0  0
 29 31  1  0  0  0  0
 31 32  1  0  0  0  0
 32 33  1  0  0  0  0
 33 34  2  0  0  0  0
 33 35  1  0  0  0  0
 35 36  1  0  0  0  0
 36 37  1  0  0  0  0
 38 39  1  0  0  0  0
 38 40  1  0  0  0  0
 39 41  1  0  0  0  0
 40 43  1  0  0  0  0
 41 42  1  0  0  0  0
 43 44  1  0  0  0  0
M  END
>  <ID>
18

>  <Formula>
C35H45Cl2NO6

>  <FW>
646.6403

>  <NA28.Primary aromatic amine, hydroxyl amine and its derived esters (with restrictions)>
NO

>  <NA15.Isocyanate and isothiocyanate groups>
NO

>  <NA25.Aromatic nitroso group>
NO

>  <SAL_iss2_>
0.0

>  <NA20.(Poly) Halogenated Cycloalkanes (Nongenotoxic carcinogens)>
NO

>  <Proceed with QSAR6 and QSAR8?.User input>
NO

>  <Canc_iss2_>
3.0

>  <QSAR8.Carcinogenicity in rodents (mice, rats); aromatic amines>
NO

>  <NA30.Coumarins and Furocoumarins>
NO

>  <NA31b.Halogenated PAH (naphthalenes, biphenyls, diphenyls)  (Nongenotoxic carcinogens)>
NO

>  <NA22.Azide and triazene groups>
NO

>  <QSAR6,8 applicable?.Aromatic amine without sulfonic group on the same ring>
YES

>  <ar-N=CH2.Derived aromatic amines>
NO

>  <NA13.Hydrazine>
NO

>  <NA24.?,? unsaturated alkoxy (linear)>
NO

>  <NA28ter.Aromatic N-acyl amine>
NO

>  <Title>
iss2_551

>  <NA16.Alkyl carbamate and thiocarbamate>
NO

>  <Substance ID>
iss2_551

>  <Proceed with QSAR13?.User input>
NO

>  <NA2.Alkyl (C<5) or benzyl ester of sulphonic or phosphonic acid>
NO

>  <NA12.Quinones>
NO

>  <QSAR6.Mutagenic activity in Salmonella typhimurium TA100, with S9 metabolic activation; aromatic amines.>
NO

>  <aN=Na.Aromatic diazo>
NO

>  <NA29.Aromatic diazo>
NO

>  <NA7.Epoxides and aziridines>
NO

>  <NA4.Monohaloalkene>
NO

>  <NA18.Polycyclic Aromatic Hydrocarbons>
NO

>  <NA3.N-methylol derivatives>
NO

>  <NA23.Aliphatic N-nitro>
NO

>  <NA6.Propiolactones and propiosultones>
NO

>  <NA1.Acyl halides>
NO

>  <QSAR13.Mutagenic activity in Salmonella typhimurium TA100;  ?,?-unsaturated  aliphatic aldehydes.>
NO

>  <NA5.S or N mustard>
YES

>  <NA17.Thiocarbonyl (Nongenotoxic carcinogens)>
NO

>  <NA27.Nitro aromatic>
NO

>  <NA19.Heterocyclic Polycyclic Aromatic Hydrocarbons>
NO

>  <NA8.Aliphatic halogens>
NO

>  <NA14.Aliphatic azo and azoxy>
NO

>  <NA11.Simple aldehyde>
NO

>  <NA26.Aromatic ring N-oxide>
NO

>  <NA31a.Halogenated benzene  (Nongenotoxic carcinogens)>
NO

>  <QSAR13 applicable?.?,? unsaturated aldehyde>
NO

>  <NA9.Alkyl nitrite>
NO

>  <NA28bis.Aromatic mono- and dialkylamine>
NO

>  <NA21.Alkyl and aryl N-nitroso groups>
NO

>  <NA10.?,? unsaturated carbonyls>
YES

>  <NA31c.Halogenated dibenzodioxins  (Nongenotoxic carcinogens)>
NO

$$$$
iss2_563
  ACD/Labs1026071639

 27 29  0  0  0  0  0  0  0  0  1 V2000
    3.0886   -6.1771    0.0000 C   0  0  0  0  0  0  0  0  0  0  0  0
    3.7019   -6.8717    0.0000 C   0  0  0  0  0  0  0  0  0  0  0  0
    2.4901   -6.8717    0.0000 O   0  0  0  0  0  0  0  0  0  0  0  0
    1.9211   -5.9481    0.0000 C   0  0  0  0  0  0  0  0  0  0  0  0
    4.2708   -5.9481    0.0000 C   0  0  0  0  0  0  0  0  0  0  0  0
    4.8176   -7.3076    0.0000 C   0  0  0  0  0  0  0  0  0  0  0  0
    0.9088   -5.2683    0.0000 O   0  0  0  0  0  0  0  0  0  0  0  0
    1.4556   -7.0490    0.0000 O   0  0  0  0  0  0  0  0  0  0  0  0
    5.2831   -5.2683    0.0000 C   0  0  0  0  0  0  0  0  0  0  0  0
    0.2438   -4.2708    0.0000 C   0  0  0  0  0  0  0  0  0  0  0  0
    5.9481   -4.2708    0.0000 C   0  0  0  0  0  0  0  0  0  0  0  0
    6.1402   -6.1254    0.0000 C   0  0  0  0  0  0  0  0  0  0  0  0
    3.4285   -3.4137    0.0000 C   0  0  0  0  0  0  0  0  0  0  0  0
    0.0000   -3.0886    0.0000 C   0  0  0  0  0  0  0  0  0  0  0  0
    6.1771   -3.0886    0.0000 C   0  0  0  0  0  0  0  0  0  0  0  0
    7.1451   -4.1082    0.0000 C   0  0  0  0  0  0  0  0  0  0  0  0
    6.6796   -5.2240    0.0000 O   0  0  0  0  0  0  0  0  0  0  0  0
    4.2708   -0.2291    0.0000 C   0  0  0  0  0  0  0  0  0  0  0  0
    4.2708   -4.2708    0.0000 O   0  0  0  0  0  0  0  0  0  0  0  0
    0.2438   -1.9063    0.0000 C   0  0  0  0  0  0  0  0  0  0  0  0
    5.9481   -1.9063    0.0000 O   0  0  0  0  0  0  0  0  0  0  0  0
    7.3889   -3.0886    0.0000 O   0  0  0  0  0  0  0  0  0  0  0  0
    5.2831   -0.9014    0.0000 C   0  0  0  0  0  0  0  0  0  0  0  0
    3.0886   -0.0000    0.0000 C   0  0  0  0  0  0  0  0  0  0  0  0
    0.9088   -0.9014    0.0000 N   0  0  0  0  0  0  0  0  0  0  0  0
    1.9211   -0.2291    0.0000 C   0  0  0  0  0  0  0  0  0  0  0  0
    0.0517   -0.0517    0.0000 C   0  0  0  0  0  0  0  0  0  0  0  0
  1  2  1  0  0  0  0
  1  3  1  0  0  0  0
  1  4  1  0  0  0  0
  1  5  1  0  0  0  0
  2  6  1  0  0  0  0
  2  3  1  0  0  0  0
  4  7  1  0  0  0  0
  4  8  2  0  0  0  0
  5  9  1  0  0  0  0
  7 10  1  0  0  0  0
  9 11  1  0  0  0  0
  9 12  1  0  0  0  0
 10 13  1  0  0  0  0
 10 14  1  0  0  0  0
 11 15  1  0  0  0  0
 11 16  1  0  0  0  0
 11 17  1  0  0  0  0
 13 18  1  0  0  0  0
 13 19  2  0  0  0  0
 14 20  1  0  0  0  0
 15 21  1  0  0  0  0
 15 22  2  0  0  0  0
 18 23  1  0  0  0  0
 18 24  2  0  0  0  0
 20 25  1  0  0  0  0
 21 23  1  0  0  0  0
 24 26  1  0  0  0  0
 25 27  1  0  0  0  0
 25 26  1  0  0  0  0
M  END
>  <ID>
20

>  <Formula>
C19H27NO7

>  <FW>
381.4202

>  <NA28.Primary aromatic amine, hydroxyl amine and its derived esters (with restrictions)>
NO

>  <NA15.Isocyanate and isothiocyanate groups>
NO

>  <NA25.Aromatic nitroso group>
NO

>  <SAL_iss2_>
0.0

>  <NA20.(Poly) Halogenated Cycloalkanes (Nongenotoxic carcinogens)>
NO

>  <Proceed with QSAR6 and QSAR8?.User input>
NO

>  <Canc_iss2_>
3.0

>  <QSAR8.Carcinogenicity in rodents (mice, rats); aromatic amines>
NO

>  <NA30.Coumarins and Furocoumarins>
NO

>  <NA31b.Halogenated PAH (naphthalenes, biphenyls, diphenyls)  (Nongenotoxic carcinogens)>
NO

>  <NA22.Azide and triazene groups>
NO

>  <QSAR6,8 applicable?.Aromatic amine without sulfonic group on the same ring>
NO

>  <ar-N=CH2.Derived aromatic amines>
NO

>  <NA13.Hydrazine>
NO

>  <NA24.?,? unsaturated alkoxy (linear)>
NO

>  <NA28ter.Aromatic N-acyl amine>
NO

>  <Title>
iss2_563

>  <NA16.Alkyl carbamate and thiocarbamate>
NO

>  <Substance ID>
iss2_563

>  <Proceed with QSAR13?.User input>
NO

>  <NA2.Alkyl (C<5) or benzyl ester of sulphonic or phosphonic acid>
NO

>  <NA12.Quinones>
NO

>  <QSAR6.Mutagenic activity in Salmonella typhimurium TA100, with S9 metabolic activation; aromatic amines.>
NO

>  <aN=Na.Aromatic diazo>
NO

>  <NA29.Aromatic diazo>
NO

>  <NA7.Epoxides and aziridines>
YES

>  <NA4.Monohaloalkene>
NO

>  <NA18.Polycyclic Aromatic Hydrocarbons>
NO

>  <NA3.N-methylol derivatives>
NO

>  <NA23.Aliphatic N-nitro>
NO

>  <NA6.Propiolactones and propiosultones>
NO

>  <NA1.Acyl halides>
NO

>  <QSAR13.Mutagenic activity in Salmonella typhimurium TA100;  ?,?-unsaturated  aliphatic aldehydes.>
NO

>  <NA5.S or N mustard>
NO

>  <NA17.Thiocarbonyl (Nongenotoxic carcinogens)>
NO

>  <NA27.Nitro aromatic>
NO

>  <NA19.Heterocyclic Polycyclic Aromatic Hydrocarbons>
NO

>  <NA8.Aliphatic halogens>
NO

>  <NA14.Aliphatic azo and azoxy>
NO

>  <NA11.Simple aldehyde>
NO

>  <NA26.Aromatic ring N-oxide>
NO

>  <NA31a.Halogenated benzene  (Nongenotoxic carcinogens)>
NO

>  <QSAR13 applicable?.?,? unsaturated aldehyde>
NO

>  <NA9.Alkyl nitrite>
NO

>  <NA28bis.Aromatic mono- and dialkylamine>
NO

>  <NA21.Alkyl and aryl N-nitroso groups>
NO

>  <NA10.?,? unsaturated carbonyls>
YES

>  <NA31c.Halogenated dibenzodioxins  (Nongenotoxic carcinogens)>
NO

$$$$
iss2_567
  ACD/Labs1026071639

 14 15  0  0  0  0  0  0  0  0  1 V2000
    3.9782   -3.5859    0.0000 C   0  0  0  0  0  0  0  0  0  0  0  0
    4.2604   -4.8936    0.0000 C   0  0  0  0  0  0  0  0  0  0  0  0
    3.1041   -5.5612    0.0000 C   0  0  0  0  0  0  0  0  0  0  0  0
    2.1199   -4.6665    0.0000 N   0  0  0  0  0  0  0  0  0  0  0  0
    2.6636   -3.4482    0.0000 N   0  0  0  0  0  0  0  0  0  0  0  0
    2.9664   -6.8827    0.0000 C   0  0  0  0  0  0  0  0  0  0  0  0
    4.8661   -2.6017    0.0000 O   0  0  0  0  0  0  0  0  0  0  0  0
    0.8122   -4.9418    0.0000 C   0  0  0  0  0  0  0  0  0  0  0  0
    1.9891   -2.2919    0.0000 C   0  0  0  0  0  0  0  0  0  0  0  0
    0.6607   -2.2919    0.0000 C   0  0  0  0  0  0  0  0  0  0  0  0
    0.0000   -1.1425    0.0000 C   0  0  0  0  0  0  0  0  0  0  0  0
    0.6607   -0.0000    0.0000 C   0  0  0  0  0  0  0  0  0  0  0  0
    1.9891   -0.0000    0.0000 C   0  0  0  0  0  0  0  0  0  0  0  0
    2.6636   -1.1425    0.0000 C   0  0  0  0  0  0  0  0  0  0  0  0
  1  2  1  0  0  0  0
  1  5  1  0  0  0  0
  1  7  2  0  0  0  0
  2  3  2  0  0  0  0
  3  4  1  0  0  0  0
  3  6  1  0  0  0  0
  4  5  1  0  0  0  0
  4  8  1  0  0  0  0
  5  9  1  0  0  0  0
  9 10  1  0  0  0  0
  9 14  2  0  0  0  0
 10 11  2  0  0  0  0
 11 12  1  0  0  0  0
 12 13  2  0  0  0  0
 13 14  1  0  0  0  0
M  END
>  <ID>
21

>  <Formula>
C11H12N2O

>  <FW>
188.2259

>  <NA28.Primary aromatic amine, hydroxyl amine and its derived esters (with restrictions)>
NO

>  <NA15.Isocyanate and isothiocyanate groups>
NO

>  <NA25.Aromatic nitroso group>
NO

>  <SAL_iss2_>
1.0

>  <NA20.(Poly) Halogenated Cycloalkanes (Nongenotoxic carcinogens)>
NO

>  <Proceed with QSAR6 and QSAR8?.User input>
NO

>  <Canc_iss2_>
3.0

>  <QSAR8.Carcinogenicity in rodents (mice, rats); aromatic amines>
NO

>  <NA30.Coumarins and Furocoumarins>
NO

>  <NA31b.Halogenated PAH (naphthalenes, biphenyls, diphenyls)  (Nongenotoxic carcinogens)>
NO

>  <NA22.Azide and triazene groups>
NO

>  <QSAR6,8 applicable?.Aromatic amine without sulfonic group on the same ring>
NO

>  <ar-N=CH2.Derived aromatic amines>
NO

>  <NA13.Hydrazine>
NO

>  <NA24.?,? unsaturated alkoxy (linear)>
NO

>  <NA28ter.Aromatic N-acyl amine>
NO

>  <Title>
iss2_567

>  <NA16.Alkyl carbamate and thiocarbamate>
NO

>  <Substance ID>
iss2_567

>  <Proceed with QSAR13?.User input>
NO

>  <NA2.Alkyl (C<5) or benzyl ester of sulphonic or phosphonic acid>
NO

>  <NA12.Quinones>
NO

>  <QSAR6.Mutagenic activity in Salmonella typhimurium TA100, with S9 metabolic activation; aromatic amines.>
NO

>  <aN=Na.Aromatic diazo>
NO

>  <NA29.Aromatic diazo>
NO

>  <NA7.Epoxides and aziridines>
NO

>  <NA4.Monohaloalkene>
NO

>  <NA18.Polycyclic Aromatic Hydrocarbons>
NO

>  <NA3.N-methylol derivatives>
NO

>  <NA23.Aliphatic N-nitro>
NO

>  <NA6.Propiolactones and propiosultones>
NO

>  <NA1.Acyl halides>
NO

>  <QSAR13.Mutagenic activity in Salmonella typhimurium TA100;  ?,?-unsaturated  aliphatic aldehydes.>
NO

>  <NA5.S or N mustard>
NO

>  <NA17.Thiocarbonyl (Nongenotoxic carcinogens)>
NO

>  <NA27.Nitro aromatic>
NO

>  <NA19.Heterocyclic Polycyclic Aromatic Hydrocarbons>
NO

>  <NA8.Aliphatic halogens>
NO

>  <NA14.Aliphatic azo and azoxy>
NO

>  <NA11.Simple aldehyde>
NO

>  <NA26.Aromatic ring N-oxide>
NO

>  <NA31a.Halogenated benzene  (Nongenotoxic carcinogens)>
NO

>  <QSAR13 applicable?.?,? unsaturated aldehyde>
NO

>  <NA9.Alkyl nitrite>
NO

>  <NA28bis.Aromatic mono- and dialkylamine>
NO

>  <NA21.Alkyl and aryl N-nitroso groups>
NO

>  <NA10.?,? unsaturated carbonyls>
NO

>  <NA31c.Halogenated dibenzodioxins  (Nongenotoxic carcinogens)>
NO

$$$$
iss2_582
  ACD/Labs1026071639

 11 11  0  0  0  0  0  0  0  0  1 V2000
    3.4599   -5.3275    0.0000 C   0  0  0  0  0  0  0  0  0  0  0  0
    2.3106   -5.9860    0.0000 N   0  0  0  0  0  0  0  0  0  0  0  0
    1.1553   -5.3275    0.0000 C   0  0  0  0  0  0  0  0  0  0  0  0
    1.1553   -3.9926    0.0000 N   0  0  0  0  0  0  0  0  0  0  0  0
    2.3106   -3.3222    0.0000 C   0  0  0  0  0  0  0  0  0  0  0  0
    3.4599   -3.9926    0.0000 C   0  0  0  0  0  0  0  0  0  0  0  0
    4.6032   -5.9860    0.0000 O   0  0  0  0  0  0  0  0  0  0  0  0
    0.0000   -5.9860    0.0000 S   0  0  0  0  0  0  0  0  0  0  0  0
    2.3106   -1.9933    0.0000 C   0  0  0  0  0  0  0  0  0  0  0  0
    1.1553   -1.3289    0.0000 C   0  0  0  0  0  0  0  0  0  0  0  0
    1.1553   -0.0000    0.0000 C   0  0  0  0  0  0  0  0  0  0  0  0
  1  2  1  0  0  0  0
  1  6  1  0  0  0  0
  1  7  2  0  0  0  0
  2  3  1  0  0  0  0
  3  4  1  0  0  0  0
  3  8  2  0  0  0  0
  4  5  1  0  0  0  0
  5  6  2  0  0  0  0
  5  9  1  0  0  0  0
  9 10  1  0  0  0  0
 10 11  1  0  0  0  0
M  END
>  <ID>
22

>  <Formula>
C7H10N2OS

>  <FW>
170.2332

>  <NA28.Primary aromatic amine, hydroxyl amine and its derived esters (with restrictions)>
NO

>  <NA15.Isocyanate and isothiocyanate groups>
NO

>  <NA25.Aromatic nitroso group>
NO

>  <SAL_iss2_>
0.0

>  <NA20.(Poly) Halogenated Cycloalkanes (Nongenotoxic carcinogens)>
NO

>  <Proceed with QSAR6 and QSAR8?.User input>
NO

>  <Canc_iss2_>
3.0

>  <QSAR8.Carcinogenicity in rodents (mice, rats); aromatic amines>
NO

>  <NA30.Coumarins and Furocoumarins>
NO

>  <NA31b.Halogenated PAH (naphthalenes, biphenyls, diphenyls)  (Nongenotoxic carcinogens)>
NO

>  <NA22.Azide and triazene groups>
NO

>  <QSAR6,8 applicable?.Aromatic amine without sulfonic group on the same ring>
NO

>  <ar-N=CH2.Derived aromatic amines>
NO

>  <NA13.Hydrazine>
NO

>  <NA24.?,? unsaturated alkoxy (linear)>
NO

>  <NA28ter.Aromatic N-acyl amine>
NO

>  <Title>
iss2_582

>  <NA16.Alkyl carbamate and thiocarbamate>
NO

>  <Substance ID>
iss2_582

>  <Proceed with QSAR13?.User input>
NO

>  <NA2.Alkyl (C<5) or benzyl ester of sulphonic or phosphonic acid>
NO

>  <NA12.Quinones>
NO

>  <QSAR6.Mutagenic activity in Salmonella typhimurium TA100, with S9 metabolic activation; aromatic amines.>
NO

>  <aN=Na.Aromatic diazo>
NO

>  <NA29.Aromatic diazo>
NO

>  <NA7.Epoxides and aziridines>
NO

>  <NA4.Monohaloalkene>
NO

>  <NA18.Polycyclic Aromatic Hydrocarbons>
NO

>  <NA3.N-methylol derivatives>
NO

>  <NA23.Aliphatic N-nitro>
NO

>  <NA6.Propiolactones and propiosultones>
NO

>  <NA1.Acyl halides>
NO

>  <QSAR13.Mutagenic activity in Salmonella typhimurium TA100;  ?,?-unsaturated  aliphatic aldehydes.>
NO

>  <NA5.S or N mustard>
NO

>  <NA17.Thiocarbonyl (Nongenotoxic carcinogens)>
YES

>  <NA27.Nitro aromatic>
NO

>  <NA19.Heterocyclic Polycyclic Aromatic Hydrocarbons>
NO

>  <NA8.Aliphatic halogens>
NO

>  <NA14.Aliphatic azo and azoxy>
NO

>  <NA11.Simple aldehyde>
NO

>  <NA26.Aromatic ring N-oxide>
NO

>  <NA31a.Halogenated benzene  (Nongenotoxic carcinogens)>
NO

>  <QSAR13 applicable?.?,? unsaturated aldehyde>
NO

>  <NA9.Alkyl nitrite>
NO

>  <NA28bis.Aromatic mono- and dialkylamine>
NO

>  <NA21.Alkyl and aryl N-nitroso groups>
NO

>  <NA10.?,? unsaturated carbonyls>
NO

>  <NA31c.Halogenated dibenzodioxins  (Nongenotoxic carcinogens)>
NO

$$$$
iss2_609
  ACD/Labs1026071639

  8  8  0  0  0  0  0  0  0  0  1 V2000
    2.3060   -0.0000    0.0000 C   0  0  0  0  0  0  0  0  0  0  0  0
    3.4590   -0.6583    0.0000 C   0  0  0  0  0  0  0  0  0  0  0  0
    3.4590   -1.9868    0.0000 N   0  0  0  0  0  0  0  0  0  0  0  0
    2.3060   -2.6611    0.0000 C   0  0  0  0  0  0  0  0  0  0  0  0
    1.1530   -1.9868    0.0000 N   0  0  0  0  0  0  0  0  0  0  0  0
    1.1530   -0.6583    0.0000 C   0  0  0  0  0  0  0  0  0  0  0  0
    0.0000   -0.0000    0.0000 O   0  0  0  0  0  0  0  0  0  0  0  0
    2.3060   -3.9896    0.0000 S   0  0  0  0  0  0  0  0  0  0  0  0
  1  2  2  0  0  0  0
  1  6  1  0  0  0  0
  2  3  1  0  0  0  0
  3  4  1  0  0  0  0
  4  5  1  0  0  0  0
  4  8  2  0  0  0  0
  5  6  1  0  0  0  0
  6  7  2  0  0  0  0
M  END
>  <ID>
23

>  <Formula>
C4H4N2OS

>  <FW>
128.1534

>  <NA28.Primary aromatic amine, hydroxyl amine and its derived esters (with restrictions)>
NO

>  <NA15.Isocyanate and isothiocyanate groups>
NO

>  <NA25.Aromatic nitroso group>
NO

>  <SAL_iss2_>
0.0

>  <NA20.(Poly) Halogenated Cycloalkanes (Nongenotoxic carcinogens)>
NO

>  <Proceed with QSAR6 and QSAR8?.User input>
NO

>  <Canc_iss2_>
3.0

>  <QSAR8.Carcinogenicity in rodents (mice, rats); aromatic amines>
NO

>  <NA30.Coumarins and Furocoumarins>
NO

>  <NA31b.Halogenated PAH (naphthalenes, biphenyls, diphenyls)  (Nongenotoxic carcinogens)>
NO

>  <NA22.Azide and triazene groups>
NO

>  <QSAR6,8 applicable?.Aromatic amine without sulfonic group on the same ring>
NO

>  <ar-N=CH2.Derived aromatic amines>
NO

>  <NA13.Hydrazine>
NO

>  <NA24.?,? unsaturated alkoxy (linear)>
NO

>  <NA28ter.Aromatic N-acyl amine>
NO

>  <Title>
iss2_609

>  <NA16.Alkyl carbamate and thiocarbamate>
NO

>  <Substance ID>
iss2_609

>  <Proceed with QSAR13?.User input>
NO

>  <NA2.Alkyl (C<5) or benzyl ester of sulphonic or phosphonic acid>
NO

>  <NA12.Quinones>
NO

>  <QSAR6.Mutagenic activity in Salmonella typhimurium TA100, with S9 metabolic activation; aromatic amines.>
NO

>  <aN=Na.Aromatic diazo>
NO

>  <NA29.Aromatic diazo>
NO

>  <NA7.Epoxides and aziridines>
NO

>  <NA4.Monohaloalkene>
NO

>  <NA18.Polycyclic Aromatic Hydrocarbons>
NO

>  <NA3.N-methylol derivatives>
NO

>  <NA23.Aliphatic N-nitro>
NO

>  <NA6.Propiolactones and propiosultones>
NO

>  <NA1.Acyl halides>
NO

>  <QSAR13.Mutagenic activity in Salmonella typhimurium TA100;  ?,?-unsaturated  aliphatic aldehydes.>
NO

>  <NA5.S or N mustard>
NO

>  <NA17.Thiocarbonyl (Nongenotoxic carcinogens)>
YES

>  <NA27.Nitro aromatic>
NO

>  <NA19.Heterocyclic Polycyclic Aromatic Hydrocarbons>
NO

>  <NA8.Aliphatic halogens>
NO

>  <NA14.Aliphatic azo and azoxy>
NO

>  <NA11.Simple aldehyde>
NO

>  <NA26.Aromatic ring N-oxide>
NO

>  <NA31a.Halogenated benzene  (Nongenotoxic carcinogens)>
NO

>  <QSAR13 applicable?.?,? unsaturated aldehyde>
NO

>  <NA9.Alkyl nitrite>
NO

>  <NA28bis.Aromatic mono- and dialkylamine>
NO

>  <NA21.Alkyl and aryl N-nitroso groups>
NO

>  <NA10.?,? unsaturated carbonyls>
NO

>  <NA31c.Halogenated dibenzodioxins  (Nongenotoxic carcinogens)>
NO

$$$$
iss2_616
  ACD/Labs1026071639

  7  6  0  0  0  0  0  0  0  0  1 V2000
    4.5943   -0.6719    0.0000 C   0  0  0  0  0  0  0  0  0  0  0  0
    3.4515   -0.0000    0.0000 N   0  0  0  0  0  0  0  0  0  0  0  0
    2.3029   -0.6719    0.0000 C   0  0  0  0  0  0  0  0  0  0  0  0
    1.1486   -0.0000    0.0000 C   0  0  0  0  0  0  0  0  0  0  0  0
    0.0000   -0.6719    0.0000 C   0  0  0  0  0  0  0  0  0  0  0  0
    5.7429   -0.0000    0.0000 O   0  0  0  0  0  0  0  0  0  0  0  0
    2.3029   -1.9985    0.0000 O   0  0  0  0  0  0  0  0  0  0  0  0
  1  2  1  0  0  0  0
  1  6  1  0  0  0  0
  2  3  1  0  0  0  0
  3  4  1  0  0  0  0
  3  7  2  0  0  0  0
  4  5  2  0  0  0  0
M  END
>  <ID>
24

>  <Formula>
C4H7NO2

>  <FW>
101.1039

>  <NA28.Primary aromatic amine, hydroxyl amine and its derived esters (with restrictions)>
NO

>  <NA15.Isocyanate and isothiocyanate groups>
NO

>  <NA25.Aromatic nitroso group>
NO

>  <SAL_iss2_>
1.0

>  <NA20.(Poly) Halogenated Cycloalkanes (Nongenotoxic carcinogens)>
NO

>  <Proceed with QSAR6 and QSAR8?.User input>
NO

>  <Canc_iss2_>
3.0

>  <QSAR8.Carcinogenicity in rodents (mice, rats); aromatic amines>
NO

>  <NA30.Coumarins and Furocoumarins>
NO

>  <NA31b.Halogenated PAH (naphthalenes, biphenyls, diphenyls)  (Nongenotoxic carcinogens)>
NO

>  <NA22.Azide and triazene groups>
NO

>  <QSAR6,8 applicable?.Aromatic amine without sulfonic group on the same ring>
NO

>  <ar-N=CH2.Derived aromatic amines>
NO

>  <NA13.Hydrazine>
NO

>  <NA24.?,? unsaturated alkoxy (linear)>
NO

>  <NA28ter.Aromatic N-acyl amine>
NO

>  <Title>
iss2_616

>  <NA16.Alkyl carbamate and thiocarbamate>
NO

>  <Substance ID>
iss2_616

>  <Proceed with QSAR13?.User input>
NO

>  <NA2.Alkyl (C<5) or benzyl ester of sulphonic or phosphonic acid>
NO

>  <NA12.Quinones>
NO

>  <QSAR6.Mutagenic activity in Salmonella typhimurium TA100, with S9 metabolic activation; aromatic amines.>
NO

>  <aN=Na.Aromatic diazo>
NO

>  <NA29.Aromatic diazo>
NO

>  <NA7.Epoxides and aziridines>
NO

>  <NA4.Monohaloalkene>
NO

>  <NA18.Polycyclic Aromatic Hydrocarbons>
NO

>  <NA3.N-methylol derivatives>
YES

>  <NA23.Aliphatic N-nitro>
NO

>  <NA6.Propiolactones and propiosultones>
NO

>  <NA1.Acyl halides>
NO

>  <QSAR13.Mutagenic activity in Salmonella typhimurium TA100;  ?,?-unsaturated  aliphatic aldehydes.>
NO

>  <NA5.S or N mustard>
NO

>  <NA17.Thiocarbonyl (Nongenotoxic carcinogens)>
NO

>  <NA27.Nitro aromatic>
NO

>  <NA19.Heterocyclic Polycyclic Aromatic Hydrocarbons>
NO

>  <NA8.Aliphatic halogens>
NO

>  <NA14.Aliphatic azo and azoxy>
NO

>  <NA11.Simple aldehyde>
NO

>  <NA26.Aromatic ring N-oxide>
NO

>  <NA31a.Halogenated benzene  (Nongenotoxic carcinogens)>
NO

>  <QSAR13 applicable?.?,? unsaturated aldehyde>
NO

>  <NA9.Alkyl nitrite>
NO

>  <NA28bis.Aromatic mono- and dialkylamine>
NO

>  <NA21.Alkyl and aryl N-nitroso groups>
NO

>  <NA10.?,? unsaturated carbonyls>
YES

>  <NA31c.Halogenated dibenzodioxins  (Nongenotoxic carcinogens)>
NO

$$$$
iss2_662
  ACD/Labs1026071639

 11 11  0  0  0  0  0  0  0  0  1 V2000
    3.9889   -2.3024    0.0000 C   0  0  0  0  0  0  0  0  0  0  0  0
    3.3155   -3.4536    0.0000 C   0  0  0  0  0  0  0  0  0  0  0  0
    1.9973   -3.4536    0.0000 C   0  0  0  0  0  0  0  0  0  0  0  0
    1.3239   -2.3024    0.0000 C   0  0  0  0  0  0  0  0  0  0  0  0
    1.9973   -1.1570    0.0000 C   0  0  0  0  0  0  0  0  0  0  0  0
    3.3155   -1.1570    0.0000 C   0  0  0  0  0  0  0  0  0  0  0  0
    3.9889   -0.0000    0.0000 C   0  0  0  0  0  0  0  0  0  0  0  0
    1.3239   -0.0000    0.0000 O   0  0  0  0  0  0  0  0  0  0  0  0
    1.3239   -4.6106    0.0000 C   0  0  0  0  0  0  0  0  0  0  0  0
    0.0000   -4.6106    0.0000 C   0  0  0  0  0  0  0  0  0  0  0  0
    1.9973   -5.7560    0.0000 C   0  0  0  0  0  0  0  0  0  0  0  0
  1  2  1  0  0  0  0
  1  6  2  0  0  0  0
  2  3  1  0  0  0  0
  3  4  1  0  0  0  0
  3  9  1  0  0  0  0
  4  5  1  0  0  0  0
  5  6  1  0  0  0  0
  5  8  2  0  0  0  0
  6  7  1  0  0  0  0
  9 10  1  0  0  0  0
  9 11  2  0  0  0  0
M  END
>  <ID>
25

>  <Formula>
C10H14O

>  <FW>
150.2176

>  <NA28.Primary aromatic amine, hydroxyl amine and its derived esters (with restrictions)>
NO

>  <NA15.Isocyanate and isothiocyanate groups>
NO

>  <NA25.Aromatic nitroso group>
NO

>  <SAL_iss2_>
1.0

>  <NA20.(Poly) Halogenated Cycloalkanes (Nongenotoxic carcinogens)>
NO

>  <Proceed with QSAR6 and QSAR8?.User input>
NO

>  <Canc_iss2_>
1.0

>  <QSAR8.Carcinogenicity in rodents (mice, rats); aromatic amines>
NO

>  <NA30.Coumarins and Furocoumarins>
NO

>  <NA31b.Halogenated PAH (naphthalenes, biphenyls, diphenyls)  (Nongenotoxic carcinogens)>
NO

>  <NA22.Azide and triazene groups>
NO

>  <QSAR6,8 applicable?.Aromatic amine without sulfonic group on the same ring>
NO

>  <ar-N=CH2.Derived aromatic amines>
NO

>  <NA13.Hydrazine>
NO

>  <NA24.?,? unsaturated alkoxy (linear)>
NO

>  <NA28ter.Aromatic N-acyl amine>
NO

>  <Title>
iss2_662

>  <NA16.Alkyl carbamate and thiocarbamate>
NO

>  <Substance ID>
iss2_662

>  <Proceed with QSAR13?.User input>
NO

>  <NA2.Alkyl (C<5) or benzyl ester of sulphonic or phosphonic acid>
NO

>  <NA12.Quinones>
NO

>  <QSAR6.Mutagenic activity in Salmonella typhimurium TA100, with S9 metabolic activation; aromatic amines.>
NO

>  <aN=Na.Aromatic diazo>
NO

>  <NA29.Aromatic diazo>
NO

>  <NA7.Epoxides and aziridines>
NO

>  <NA4.Monohaloalkene>
NO

>  <NA18.Polycyclic Aromatic Hydrocarbons>
NO

>  <NA3.N-methylol derivatives>
NO

>  <NA23.Aliphatic N-nitro>
NO

>  <NA6.Propiolactones and propiosultones>
NO

>  <NA1.Acyl halides>
NO

>  <QSAR13.Mutagenic activity in Salmonella typhimurium TA100;  ?,?-unsaturated  aliphatic aldehydes.>
NO

>  <NA5.S or N mustard>
NO

>  <NA17.Thiocarbonyl (Nongenotoxic carcinogens)>
NO

>  <NA27.Nitro aromatic>
NO

>  <NA19.Heterocyclic Polycyclic Aromatic Hydrocarbons>
NO

>  <NA8.Aliphatic halogens>
NO

>  <NA14.Aliphatic azo and azoxy>
NO

>  <NA11.Simple aldehyde>
NO

>  <NA26.Aromatic ring N-oxide>
NO

>  <NA31a.Halogenated benzene  (Nongenotoxic carcinogens)>
NO

>  <QSAR13 applicable?.?,? unsaturated aldehyde>
NO

>  <NA9.Alkyl nitrite>
NO

>  <NA28bis.Aromatic mono- and dialkylamine>
NO

>  <NA21.Alkyl and aryl N-nitroso groups>
NO

>  <NA10.?,? unsaturated carbonyls>
YES

>  <NA31c.Halogenated dibenzodioxins  (Nongenotoxic carcinogens)>
NO

$$$$
iss2_663
  ACD/Labs1026071639

 17 18  0  0  0  0  0  0  0  0  1 V2000
    1.1544   -0.6705    0.0000 C   0  0  0  0  0  0  0  0  0  0  0  0
    2.3019   -0.0000    0.0000 C   0  0  0  0  0  0  0  0  0  0  0  0
    3.4563   -0.6705    0.0000 C   0  0  0  0  0  0  0  0  0  0  0  0
    1.1544   -1.9978    0.0000 N   0  0  0  0  0  0  0  0  0  0  0  0
    2.3019   -2.6545    0.0000 C   0  0  0  0  0  0  0  0  0  0  0  0
    3.4563   -1.9978    0.0000 C   0  0  0  0  0  0  0  0  0  0  0  0
    4.6107   -2.6545    0.0000 C   0  0  0  0  0  0  0  0  0  0  0  0
    4.6107   -3.9886    0.0000 C   0  0  0  0  0  0  0  0  0  0  0  0
    3.4563   -4.6591    0.0000 C   0  0  0  0  0  0  0  0  0  0  0  0
    2.3019   -3.9886    0.0000 N   0  0  0  0  0  0  0  0  0  0  0  0
    0.0000   -0.0000    0.0000 C   0  0  0  0  0  0  0  0  0  0  0  0
    1.1544   -4.6591    0.0000 C   0  0  0  0  0  0  0  0  0  0  0  0
    1.1544   -5.9864    0.0000 C   0  0  0  0  0  0  0  0  0  0  0  0
    5.7583   -4.6591    0.0000 C   0  0  0  0  0  0  0  0  0  0  0  0
    6.9127   -3.9886    0.0000 O   0  0  0  0  0  0  0  0  0  0  0  0
    5.7583   -5.9864    0.0000 O   0  0  0  0  0  0  0  0  0  0  0  0
    5.7583   -1.9978    0.0000 O   0  0  0  0  0  0  0  0  0  0  0  0
  1  2  2  0  0  0  0
  1  4  1  0  0  0  0
  1 11  1  0  0  0  0
  2  3  1  0  0  0  0
  3  6  2  0  0  0  0
  4  5  2  0  0  0  0
  5  6  1  0  0  0  0
  5 10  1  0  0  0  0
  6  7  1  0  0  0  0
  7  8  1  0  0  0  0
  7 17  2  0  0  0  0
  8  9  2  0  0  0  0
  8 14  1  0  0  0  0
  9 10  1  0  0  0  0
 10 12  1  0  0  0  0
 12 13  1  0  0  0  0
 14 15  1  0  0  0  0
 14 16  2  0  0  0  0
M  END
>  <ID>
26

>  <Formula>
C12H12N2O3

>  <FW>
232.2354

>  <NA28.Primary aromatic amine, hydroxyl amine and its derived esters (with restrictions)>
NO

>  <NA15.Isocyanate and isothiocyanate groups>
NO

>  <NA25.Aromatic nitroso group>
NO

>  <SAL_iss2_>
1.0

>  <NA20.(Poly) Halogenated Cycloalkanes (Nongenotoxic carcinogens)>
NO

>  <Proceed with QSAR6 and QSAR8?.User input>
NO

>  <Canc_iss2_>
3.0

>  <QSAR8.Carcinogenicity in rodents (mice, rats); aromatic amines>
NO

>  <NA30.Coumarins and Furocoumarins>
NO

>  <NA31b.Halogenated PAH (naphthalenes, biphenyls, diphenyls)  (Nongenotoxic carcinogens)>
NO

>  <NA22.Azide and triazene groups>
NO

>  <QSAR6,8 applicable?.Aromatic amine without sulfonic group on the same ring>
NO

>  <ar-N=CH2.Derived aromatic amines>
NO

>  <NA13.Hydrazine>
NO

>  <NA24.?,? unsaturated alkoxy (linear)>
NO

>  <NA28ter.Aromatic N-acyl amine>
NO

>  <Title>
iss2_663

>  <NA16.Alkyl carbamate and thiocarbamate>
NO

>  <Substance ID>
iss2_663

>  <Proceed with QSAR13?.User input>
NO

>  <NA2.Alkyl (C<5) or benzyl ester of sulphonic or phosphonic acid>
NO

>  <NA12.Quinones>
NO

>  <QSAR6.Mutagenic activity in Salmonella typhimurium TA100, with S9 metabolic activation; aromatic amines.>
NO

>  <aN=Na.Aromatic diazo>
NO

>  <NA29.Aromatic diazo>
NO

>  <NA7.Epoxides and aziridines>
NO

>  <NA4.Monohaloalkene>
NO

>  <NA18.Polycyclic Aromatic Hydrocarbons>
NO

>  <NA3.N-methylol derivatives>
NO

>  <NA23.Aliphatic N-nitro>
NO

>  <NA6.Propiolactones and propiosultones>
NO

>  <NA1.Acyl halides>
NO

>  <QSAR13.Mutagenic activity in Salmonella typhimurium TA100;  ?,?-unsaturated  aliphatic aldehydes.>
NO

>  <NA5.S or N mustard>
NO

>  <NA17.Thiocarbonyl (Nongenotoxic carcinogens)>
NO

>  <NA27.Nitro aromatic>
NO

>  <NA19.Heterocyclic Polycyclic Aromatic Hydrocarbons>
NO

>  <NA8.Aliphatic halogens>
NO

>  <NA14.Aliphatic azo and azoxy>
NO

>  <NA11.Simple aldehyde>
NO

>  <NA26.Aromatic ring N-oxide>
NO

>  <NA31a.Halogenated benzene  (Nongenotoxic carcinogens)>
NO

>  <QSAR13 applicable?.?,? unsaturated aldehyde>
NO

>  <NA9.Alkyl nitrite>
NO

>  <NA28bis.Aromatic mono- and dialkylamine>
NO

>  <NA21.Alkyl and aryl N-nitroso groups>
NO

>  <NA10.?,? unsaturated carbonyls>
NO

>  <NA31c.Halogenated dibenzodioxins  (Nongenotoxic carcinogens)>
NO

$$$$
iss2_708
  ACD/Labs1026071639

 31 32  0  0  1  0  0  0  0  0  2 V2000
    4.6397   -1.1677    0.0000 N   0  0  0  0  0  0  0  0  0  0  0  0
    5.3114   -2.3147    0.0000 C   0  0  0  0  0  0  0  0  0  0  0  0
    4.6397   -3.4617    0.0000 N   0  0  0  0  0  0  0  0  0  0  0  0
    3.3170   -3.4617    0.0000 C   0  0  0  0  0  0  0  0  0  0  0  0
    2.6453   -2.3147    0.0000 C   0  0  0  0  0  0  0  0  0  0  0  0
    3.3170   -1.1677    0.0000 C   0  0  0  0  0  0  0  0  0  0  0  0
    6.6340   -2.3147    0.0000 O   0  0  0  0  0  0  0  0  0  0  0  0
    2.6453   -0.0000    0.0000 O   0  0  0  0  0  0  0  0  0  0  0  0
    1.3227   -2.3147    0.0000 C   0  0  0  0  0  0  0  0  0  0  0  0
    5.7660   -6.7167    0.0000 C   0  0  0  0  0  0  0  0  0  0  0  0
    4.7740   -5.8280    0.0000 C   0  0  0  0  0  0  0  0  0  0  0  0
    5.3114   -4.6190    0.0000 C   0  0  0  0  0  0  0  0  0  0  0  0
    6.6340   -4.7430    0.0000 O   0  0  0  0  0  0  0  0  0  0  0  0
    6.9130   -6.0554    0.0000 C   0  0  0  0  0  0  0  0  0  0  0  0
    4.9807   -7.7914    0.0000 N   0  0  0  0  0  0  0  0  0  0  0  0
    8.2357   -5.9107    0.0000 C   0  0  0  0  0  0  0  0  0  0  0  0
    9.0107   -6.9854    0.0000 O   0  0  0  0  0  0  0  0  0  0  0  0
    5.5180   -9.0107    0.0000 N   0  3  0  0  0  0  0  0  0  0  0  0
    6.0554  -10.2197    0.0000 N   0  5  0  0  0  0  0  0  0  0  0  0
    5.3114   -0.0000    0.0000 H   0  0  0  0  0  0  0  0  0  0  0  0
    2.6453   -4.6190    0.0000 H   0  0  0  0  0  0  0  0  0  0  0  0
    1.3227   -3.6374    0.0000 H   0  0  0  0  0  0  0  0  0  0  0  0
    1.3227   -0.9817    0.0000 H   0  0  0  0  0  0  0  0  0  0  0  0
    0.0000   -2.3147    0.0000 H   0  0  0  0  0  0  0  0  0  0  0  0
    6.3034   -7.9360    0.0000 H   0  0  0  0  0  0  0  0  0  0  0  0
    3.7820   -6.7167    0.0000 H   0  0  0  0  0  0  0  0  0  0  0  0
    3.5030   -5.4147    0.0000 H   0  0  0  0  0  0  0  0  0  0  0  0
    4.1644   -3.9474    0.0000 H   0  0  0  0  0  0  0  0  0  0  0  0
    7.6984   -7.1300    0.0000 H   0  0  0  0  0  0  0  0  0  0  0  0
    8.7731   -4.7017    0.0000 H   0  0  0  0  0  0  0  0  0  0  0  0
   10.3334   -6.8614    0.0000 H   0  0  0  0  0  0  0  0  0  0  0  0
  1  2  1  0  0  0  0
  1  6  1  0  0  0  0
  1 20  1  1  0  0  0
  2  3  1  6  0  0  0
  2  7  2  0  0  0  0
  3  4  1  0  0  0  0
  3 12  1  0  0  0  0
  4  5  2  0  0  0  0
  4 21  1  6  0  0  0
  5  6  1  1  0  0  0
  5  9  1  0  0  0  0
  6  8  2  0  0  0  0
  9 22  1  6  0  0  0
  9 23  1  6  0  0  0
  9 24  1  1  0  0  0
 10 11  1  0  0  0  0
 10 14  1  0  0  0  0
 10 15  1  6  0  0  0
 10 25  1  1  0  0  0
 11 12  1  1  0  0  0
 11 26  1  1  0  0  0
 11 27  1  6  0  0  0
 12 13  1  6  0  0  0
 12 28  1  1  0  0  0
 13 14  1  0  0  0  0
 14 16  1  6  0  0  0
 14 29  1  1  0  0  0
 15 18  2  0  0  0  0
 16 17  1  0  0  0  0
 16 30  1  6  0  0  0
 17 31  1  6  0  0  0
 18 19  2  0  0  0  0
M  CHG  2  18   1  19  -1
M  END
>  <ID>
27

>  <Formula>
C10H13N5O4

>  <FW>
267.2415

>  <NA28.Primary aromatic amine, hydroxyl amine and its derived esters (with restrictions)>
NO

>  <NA15.Isocyanate and isothiocyanate groups>
NO

>  <NA25.Aromatic nitroso group>
NO

>  <SAL_iss2_>
3.0

>  <NA20.(Poly) Halogenated Cycloalkanes (Nongenotoxic carcinogens)>
NO

>  <Proceed with QSAR6 and QSAR8?.User input>
NO

>  <Canc_iss2_>
3.0

>  <QSAR8.Carcinogenicity in rodents (mice, rats); aromatic amines>
NO

>  <NA30.Coumarins and Furocoumarins>
NO

>  <NA31b.Halogenated PAH (naphthalenes, biphenyls, diphenyls)  (Nongenotoxic carcinogens)>
NO

>  <NA22.Azide and triazene groups>
YES

>  <QSAR6,8 applicable?.Aromatic amine without sulfonic group on the same ring>
NO

>  <ar-N=CH2.Derived aromatic amines>
NO

>  <NA13.Hydrazine>
NO

>  <NA24.?,? unsaturated alkoxy (linear)>
NO

>  <NA28ter.Aromatic N-acyl amine>
NO

>  <Title>
iss2_708

>  <NA16.Alkyl carbamate and thiocarbamate>
NO

>  <Substance ID>
iss2_708

>  <Proceed with QSAR13?.User input>
NO

>  <NA2.Alkyl (C<5) or benzyl ester of sulphonic or phosphonic acid>
NO

>  <NA12.Quinones>
NO

>  <QSAR6.Mutagenic activity in Salmonella typhimurium TA100, with S9 metabolic activation; aromatic amines.>
NO

>  <aN=Na.Aromatic diazo>
NO

>  <NA29.Aromatic diazo>
NO

>  <NA7.Epoxides and aziridines>
NO

>  <NA4.Monohaloalkene>
NO

>  <NA18.Polycyclic Aromatic Hydrocarbons>
NO

>  <NA3.N-methylol derivatives>
NO

>  <NA23.Aliphatic N-nitro>
NO

>  <NA6.Propiolactones and propiosultones>
NO

>  <NA1.Acyl halides>
NO

>  <QSAR13.Mutagenic activity in Salmonella typhimurium TA100;  ?,?-unsaturated  aliphatic aldehydes.>
NO

>  <NA5.S or N mustard>
NO

>  <NA17.Thiocarbonyl (Nongenotoxic carcinogens)>
NO

>  <NA27.Nitro aromatic>
NO

>  <NA19.Heterocyclic Polycyclic Aromatic Hydrocarbons>
NO

>  <NA8.Aliphatic halogens>
NO

>  <NA14.Aliphatic azo and azoxy>
NO

>  <NA11.Simple aldehyde>
NO

>  <NA26.Aromatic ring N-oxide>
NO

>  <NA31a.Halogenated benzene  (Nongenotoxic carcinogens)>
NO

>  <QSAR13 applicable?.?,? unsaturated aldehyde>
NO

>  <NA9.Alkyl nitrite>
NO

>  <NA28bis.Aromatic mono- and dialkylamine>
NO

>  <NA21.Alkyl and aryl N-nitroso groups>
NO

>  <NA10.?,? unsaturated carbonyls>
NO

>  <NA31c.Halogenated dibenzodioxins  (Nongenotoxic carcinogens)>
NO

$$$$
iss2_752
  ACD/Labs1026071639

 21 22  0  0  0  0  0  0  0  0  2 V2000
    8.3162   -2.3056    0.0000 C   0  0  0  0  0  0  0  0  0  0  0  0
    6.9795   -2.3056    0.0000 C   0  0  0  0  0  0  0  0  0  0  0  0
    6.3067   -1.1483    0.0000 C   0  0  0  0  0  0  0  0  0  0  0  0
    6.9795   -0.0000    0.0000 C   0  0  0  0  0  0  0  0  0  0  0  0
    8.3162   -0.0000    0.0000 C   0  0  0  0  0  0  0  0  0  0  0  0
    8.9711   -1.1483    0.0000 C   0  0  0  0  0  0  0  0  0  0  0  0
    6.8539   -4.6739    0.0000 N   0  0  0  0  0  0  0  0  0  0  0  0
    5.8671   -5.5621    0.0000 C   0  0  0  0  0  0  0  0  0  0  0  0
    4.7098   -4.8982    0.0000 C   0  0  0  0  0  0  0  0  0  0  0  0
    4.9879   -3.5974    0.0000 C   0  0  0  0  0  0  0  0  0  0  0  0
    6.3067   -3.4539    0.0000 N   0  0  0  0  0  0  0  0  0  0  0  0
    0.0000   -5.7325    0.0000 O   0  5  0  0  0  0  0  0  0  0  0  0
    1.2021   -5.2032    0.0000 S   0  0  0  0  0  0  0  0  0  0  0  0
    0.6728   -3.9921    0.0000 O   0  0  0  0  0  0  0  0  0  0  0  0
    1.7494   -6.4054    0.0000 O   0  0  0  0  0  0  0  0  0  0  0  0
    2.4222   -4.6560    0.0000 C   0  0  0  0  0  0  0  0  0  0  0  0
    3.4987   -5.4454    0.0000 N   0  0  0  0  0  0  0  0  0  0  0  0
    3.3552   -6.7642    0.0000 C   0  0  0  0  0  0  0  0  0  0  0  0
    4.1088   -2.6106    0.0000 O   0  0  0  0  0  0  0  0  0  0  0  0
    6.0017   -6.8898    0.0000 C   0  0  0  0  0  0  0  0  0  0  0  0
    8.1637   -4.9520    0.0000 C   0  0  0  0  0  0  0  0  0  0  0  0
  1  2  2  0  0  0  0
  1  6  1  0  0  0  0
  2  3  1  0  0  0  0
  2 11  1  0  0  0  0
  3  4  2  0  0  0  0
  4  5  1  0  0  0  0
  5  6  2  0  0  0  0
  7  8  1  0  0  0  0
  7 11  1  0  0  0  0
  7 21  1  0  0  0  0
  8  9  2  0  0  0  0
  8 20  1  0  0  0  0
  9 10  1  0  0  0  0
  9 17  1  0  0  0  0
 10 11  1  0  0  0  0
 10 19  2  0  0  0  0
 12 13  1  0  0  0  0
 13 14  2  0  0  0  0
 13 15  2  0  0  0  0
 13 16  1  0  0  0  0
 16 17  1  0  0  0  0
 17 18  1  0  0  0  0
M  CHG  1  12  -1
M  END
>  <ID>
28

>  <Formula>
C13H16N3O4S

>  <FW>
310.3500

>  <NA28.Primary aromatic amine, hydroxyl amine and its derived esters (with restrictions)>
NO

>  <NA15.Isocyanate and isothiocyanate groups>
NO

>  <NA25.Aromatic nitroso group>
NO

>  <SAL_iss2_>
3.0

>  <NA20.(Poly) Halogenated Cycloalkanes (Nongenotoxic carcinogens)>
NO

>  <Proceed with QSAR6 and QSAR8?.User input>
NO

>  <Canc_iss2_>
3.0

>  <QSAR8.Carcinogenicity in rodents (mice, rats); aromatic amines>
NO

>  <NA30.Coumarins and Furocoumarins>
NO

>  <NA31b.Halogenated PAH (naphthalenes, biphenyls, diphenyls)  (Nongenotoxic carcinogens)>
NO

>  <NA22.Azide and triazene groups>
NO

>  <QSAR6,8 applicable?.Aromatic amine without sulfonic group on the same ring>
YES

>  <ar-N=CH2.Derived aromatic amines>
NO

>  <NA13.Hydrazine>
NO

>  <NA24.?,? unsaturated alkoxy (linear)>
NO

>  <NA28ter.Aromatic N-acyl amine>
NO

>  <Title>
iss2_752

>  <NA16.Alkyl carbamate and thiocarbamate>
NO

>  <Substance ID>
iss2_752

>  <Proceed with QSAR13?.User input>
NO

>  <NA2.Alkyl (C<5) or benzyl ester of sulphonic or phosphonic acid>
NO

>  <NA12.Quinones>
NO

>  <QSAR6.Mutagenic activity in Salmonella typhimurium TA100, with S9 metabolic activation; aromatic amines.>
NO

>  <aN=Na.Aromatic diazo>
NO

>  <NA29.Aromatic diazo>
NO

>  <NA7.Epoxides and aziridines>
NO

>  <NA4.Monohaloalkene>
NO

>  <NA18.Polycyclic Aromatic Hydrocarbons>
NO

>  <NA3.N-methylol derivatives>
NO

>  <NA23.Aliphatic N-nitro>
NO

>  <NA6.Propiolactones and propiosultones>
NO

>  <NA1.Acyl halides>
NO

>  <QSAR13.Mutagenic activity in Salmonella typhimurium TA100;  ?,?-unsaturated  aliphatic aldehydes.>
NO

>  <NA5.S or N mustard>
NO

>  <NA17.Thiocarbonyl (Nongenotoxic carcinogens)>
NO

>  <NA27.Nitro aromatic>
NO

>  <NA19.Heterocyclic Polycyclic Aromatic Hydrocarbons>
NO

>  <NA8.Aliphatic halogens>
NO

>  <NA14.Aliphatic azo and azoxy>
NO

>  <NA11.Simple aldehyde>
NO

>  <NA26.Aromatic ring N-oxide>
NO

>  <NA31a.Halogenated benzene  (Nongenotoxic carcinogens)>
NO

>  <QSAR13 applicable?.?,? unsaturated aldehyde>
NO

>  <NA9.Alkyl nitrite>
NO

>  <NA28bis.Aromatic mono- and dialkylamine>
NO

>  <NA21.Alkyl and aryl N-nitroso groups>
NO

>  <NA10.?,? unsaturated carbonyls>
NO

>  <NA31c.Halogenated dibenzodioxins  (Nongenotoxic carcinogens)>
NO

$$$$
iss2_773
  ACD/Labs1026071639

  7  6  0  0  0  0  0  0  0  0  1 V2000
    0.0000   -0.6690    0.0000 C   0  0  0  0  0  0  0  0  0  0  0  0
    1.1518   -0.0000    0.0000 C   0  0  0  0  0  0  0  0  0  0  0  0
    2.3036   -0.6690    0.0000 C   0  0  0  0  0  0  0  0  0  0  0  0
    3.4554   -0.0000    0.0000 C   0  0  0  0  0  0  0  0  0  0  0  0
    4.5934   -0.6690    0.0000 C   0  0  0  0  0  0  0  0  0  0  0  0
    5.7452   -0.0000    0.0000 C   0  0  0  0  0  0  0  0  0  0  0  0
    6.8969   -0.6690    0.0000 O   0  0  0  0  0  0  0  0  0  0  0  0
  1  2  1  0  0  0  0
  2  3  2  0  0  0  0
  3  4  1  0  0  0  0
  4  5  2  0  0  0  0
  5  6  1  0  0  0  0
  6  7  2  0  0  0  0
M  END
>  <ID>
29

>  <Formula>
C6H8O

>  <FW>
96.1271

>  <NA28.Primary aromatic amine, hydroxyl amine and its derived esters (with restrictions)>
NO

>  <NA15.Isocyanate and isothiocyanate groups>
NO

>  <NA25.Aromatic nitroso group>
NO

>  <SAL_iss2_>
3.0

>  <NA20.(Poly) Halogenated Cycloalkanes (Nongenotoxic carcinogens)>
NO

>  <Proceed with QSAR6 and QSAR8?.User input>
NO

>  <Canc_iss2_>
3.0

>  <QSAR8.Carcinogenicity in rodents (mice, rats); aromatic amines>
NO

>  <NA30.Coumarins and Furocoumarins>
NO

>  <NA31b.Halogenated PAH (naphthalenes, biphenyls, diphenyls)  (Nongenotoxic carcinogens)>
NO

>  <NA22.Azide and triazene groups>
NO

>  <QSAR6,8 applicable?.Aromatic amine without sulfonic group on the same ring>
NO

>  <ar-N=CH2.Derived aromatic amines>
NO

>  <NA13.Hydrazine>
NO

>  <NA24.?,? unsaturated alkoxy (linear)>
NO

>  <NA28ter.Aromatic N-acyl amine>
NO

>  <Title>
iss2_773

>  <NA16.Alkyl carbamate and thiocarbamate>
NO

>  <Substance ID>
iss2_773

>  <Proceed with QSAR13?.User input>
NO

>  <NA2.Alkyl (C<5) or benzyl ester of sulphonic or phosphonic acid>
NO

>  <NA12.Quinones>
NO

>  <QSAR6.Mutagenic activity in Salmonella typhimurium TA100, with S9 metabolic activation; aromatic amines.>
NO

>  <aN=Na.Aromatic diazo>
NO

>  <NA29.Aromatic diazo>
NO

>  <NA7.Epoxides and aziridines>
NO

>  <NA4.Monohaloalkene>
NO

>  <NA18.Polycyclic Aromatic Hydrocarbons>
NO

>  <NA3.N-methylol derivatives>
NO

>  <NA23.Aliphatic N-nitro>
NO

>  <NA6.Propiolactones and propiosultones>
NO

>  <NA1.Acyl halides>
NO

>  <QSAR13.Mutagenic activity in Salmonella typhimurium TA100;  ?,?-unsaturated  aliphatic aldehydes.>
NO

>  <NA5.S or N mustard>
NO

>  <NA17.Thiocarbonyl (Nongenotoxic carcinogens)>
NO

>  <NA27.Nitro aromatic>
NO

>  <NA19.Heterocyclic Polycyclic Aromatic Hydrocarbons>
NO

>  <NA8.Aliphatic halogens>
NO

>  <NA14.Aliphatic azo and azoxy>
NO

>  <NA11.Simple aldehyde>
NO

>  <NA26.Aromatic ring N-oxide>
NO

>  <NA31a.Halogenated benzene  (Nongenotoxic carcinogens)>
NO

>  <QSAR13 applicable?.?,? unsaturated aldehyde>
YES

>  <NA9.Alkyl nitrite>
NO

>  <NA28bis.Aromatic mono- and dialkylamine>
NO

>  <NA21.Alkyl and aryl N-nitroso groups>
NO

>  <NA10.?,? unsaturated carbonyls>
YES

>  <NA31c.Halogenated dibenzodioxins  (Nongenotoxic carcinogens)>
NO

$$$$
iss2_774
  ACD/Labs1026071639

  4  3  0  0  0  0  0  0  0  0  1 V2000
    0.0000   -0.6690    0.0000 C   0  0  0  0  0  0  0  0  0  0  0  0
    1.1483   -0.0000    0.0000 C   0  0  0  0  0  0  0  0  0  0  0  0
    2.3001   -0.6690    0.0000 C   0  0  0  0  0  0  0  0  0  0  0  0
    3.4485   -0.0000    0.0000 O   0  0  0  0  0  0  0  0  0  0  0  0
  1  2  2  0  0  0  0
  2  3  1  0  0  0  0
  3  4  2  0  0  0  0
M  END
>  <ID>
30

>  <Formula>
C3H4O

>  <FW>
56.0633

>  <NA28.Primary aromatic amine, hydroxyl amine and its derived esters (with restrictions)>
NO

>  <NA15.Isocyanate and isothiocyanate groups>
NO

>  <NA25.Aromatic nitroso group>
NO

>  <SAL_iss2_>
3.0

>  <NA20.(Poly) Halogenated Cycloalkanes (Nongenotoxic carcinogens)>
NO

>  <Proceed with QSAR6 and QSAR8?.User input>
NO

>  <Canc_iss2_>
1.0

>  <QSAR8.Carcinogenicity in rodents (mice, rats); aromatic amines>
NO

>  <NA30.Coumarins and Furocoumarins>
NO

>  <NA31b.Halogenated PAH (naphthalenes, biphenyls, diphenyls)  (Nongenotoxic carcinogens)>
NO

>  <NA22.Azide and triazene groups>
NO

>  <QSAR6,8 applicable?.Aromatic amine without sulfonic group on the same ring>
NO

>  <ar-N=CH2.Derived aromatic amines>
NO

>  <NA13.Hydrazine>
NO

>  <NA24.?,? unsaturated alkoxy (linear)>
NO

>  <NA28ter.Aromatic N-acyl amine>
NO

>  <Title>
iss2_774

>  <NA16.Alkyl carbamate and thiocarbamate>
NO

>  <Substance ID>
iss2_774

>  <Proceed with QSAR13?.User input>
NO

>  <NA2.Alkyl (C<5) or benzyl ester of sulphonic or phosphonic acid>
NO

>  <NA12.Quinones>
NO

>  <QSAR6.Mutagenic activity in Salmonella typhimurium TA100, with S9 metabolic activation; aromatic amines.>
NO

>  <aN=Na.Aromatic diazo>
NO

>  <NA29.Aromatic diazo>
NO

>  <NA7.Epoxides and aziridines>
NO

>  <NA4.Monohaloalkene>
NO

>  <NA18.Polycyclic Aromatic Hydrocarbons>
NO

>  <NA3.N-methylol derivatives>
NO

>  <NA23.Aliphatic N-nitro>
NO

>  <NA6.Propiolactones and propiosultones>
NO

>  <NA1.Acyl halides>
NO

>  <QSAR13.Mutagenic activity in Salmonella typhimurium TA100;  ?,?-unsaturated  aliphatic aldehydes.>
YES

>  <NA5.S or N mustard>
NO

>  <NA17.Thiocarbonyl (Nongenotoxic carcinogens)>
NO

>  <NA27.Nitro aromatic>
NO

>  <NA19.Heterocyclic Polycyclic Aromatic Hydrocarbons>
NO

>  <NA8.Aliphatic halogens>
NO

>  <NA14.Aliphatic azo and azoxy>
NO

>  <NA11.Simple aldehyde>
NO

>  <NA26.Aromatic ring N-oxide>
NO

>  <NA31a.Halogenated benzene  (Nongenotoxic carcinogens)>
NO

>  <QSAR13 applicable?.?,? unsaturated aldehyde>
YES

>  <NA9.Alkyl nitrite>
NO

>  <NA28bis.Aromatic mono- and dialkylamine>
NO

>  <NA21.Alkyl and aryl N-nitroso groups>
NO

>  <NA10.?,? unsaturated carbonyls>
YES

>  <NA31c.Halogenated dibenzodioxins  (Nongenotoxic carcinogens)>
NO

$$$$
iss2_776
  ACD/Labs1026071639

 12 12  0  0  0  0  0  0  0  0  1 V2000
    1.9922   -4.6067    0.0000 O   0  0  0  0  0  0  0  0  0  0  0  0
    2.6563   -3.4580    0.0000 C   0  0  0  0  0  0  0  0  0  0  0  0
    1.9922   -2.3033    0.0000 C   0  0  0  0  0  0  0  0  0  0  0  0
    2.6563   -1.1547    0.0000 C   0  0  0  0  0  0  0  0  0  0  0  0
    1.9922   -0.0000    0.0000 O   0  0  0  0  0  0  0  0  0  0  0  0
    3.9905   -1.1547    0.0000 O   0  0  0  0  0  0  0  0  0  0  0  0
    4.6546   -2.3033    0.0000 C   0  0  0  0  0  0  0  0  0  0  0  0
    3.9905   -3.4580    0.0000 C   0  0  0  0  0  0  0  0  0  0  0  0
    5.9827   -2.3033    0.0000 C   0  0  0  0  0  0  0  0  0  0  0  0
    0.6641   -2.3033    0.0000 C   0  0  0  0  0  0  0  0  0  0  0  0
    0.0000   -3.4580    0.0000 O   0  0  0  0  0  0  0  0  0  0  0  0
    0.0000   -1.1547    0.0000 C   0  0  0  0  0  0  0  0  0  0  0  0
  1  2  2  0  0  0  0
  2  3  1  0  0  0  0
  2  8  1  0  0  0  0
  3  4  1  0  0  0  0
  3 10  1  0  0  0  0
  4  5  2  0  0  0  0
  4  6  1  0  0  0  0
  6  7  1  0  0  0  0
  7  8  2  0  0  0  0
  7  9  1  0  0  0  0
 10 11  2  0  0  0  0
 10 12  1  0  0  0  0
M  END
>  <ID>
31

>  <Formula>
C8H8O4

>  <FW>
168.1467

>  <NA28.Primary aromatic amine, hydroxyl amine and its derived esters (with restrictions)>
NO

>  <NA15.Isocyanate and isothiocyanate groups>
NO

>  <NA25.Aromatic nitroso group>
NO

>  <SAL_iss2_>
0.0

>  <NA20.(Poly) Halogenated Cycloalkanes (Nongenotoxic carcinogens)>
NO

>  <Proceed with QSAR6 and QSAR8?.User input>
NO

>  <Canc_iss2_>
1.0

>  <QSAR8.Carcinogenicity in rodents (mice, rats); aromatic amines>
NO

>  <NA30.Coumarins and Furocoumarins>
NO

>  <NA31b.Halogenated PAH (naphthalenes, biphenyls, diphenyls)  (Nongenotoxic carcinogens)>
NO

>  <NA22.Azide and triazene groups>
NO

>  <QSAR6,8 applicable?.Aromatic amine without sulfonic group on the same ring>
NO

>  <ar-N=CH2.Derived aromatic amines>
NO

>  <NA13.Hydrazine>
NO

>  <NA24.?,? unsaturated alkoxy (linear)>
NO

>  <NA28ter.Aromatic N-acyl amine>
NO

>  <Title>
iss2_776

>  <NA16.Alkyl carbamate and thiocarbamate>
NO

>  <Substance ID>
iss2_776

>  <Proceed with QSAR13?.User input>
NO

>  <NA2.Alkyl (C<5) or benzyl ester of sulphonic or phosphonic acid>
NO

>  <NA12.Quinones>
NO

>  <QSAR6.Mutagenic activity in Salmonella typhimurium TA100, with S9 metabolic activation; aromatic amines.>
NO

>  <aN=Na.Aromatic diazo>
NO

>  <NA29.Aromatic diazo>
NO

>  <NA7.Epoxides and aziridines>
NO

>  <NA4.Monohaloalkene>
NO

>  <NA18.Polycyclic Aromatic Hydrocarbons>
NO

>  <NA3.N-methylol derivatives>
NO

>  <NA23.Aliphatic N-nitro>
NO

>  <NA6.Propiolactones and propiosultones>
NO

>  <NA1.Acyl halides>
NO

>  <QSAR13.Mutagenic activity in Salmonella typhimurium TA100;  ?,?-unsaturated  aliphatic aldehydes.>
NO

>  <NA5.S or N mustard>
NO

>  <NA17.Thiocarbonyl (Nongenotoxic carcinogens)>
NO

>  <NA27.Nitro aromatic>
NO

>  <NA19.Heterocyclic Polycyclic Aromatic Hydrocarbons>
NO

>  <NA8.Aliphatic halogens>
NO

>  <NA14.Aliphatic azo and azoxy>
NO

>  <NA11.Simple aldehyde>
NO

>  <NA26.Aromatic ring N-oxide>
NO

>  <NA31a.Halogenated benzene  (Nongenotoxic carcinogens)>
NO

>  <QSAR13 applicable?.?,? unsaturated aldehyde>
NO

>  <NA9.Alkyl nitrite>
NO

>  <NA28bis.Aromatic mono- and dialkylamine>
NO

>  <NA21.Alkyl and aryl N-nitroso groups>
NO

>  <NA10.?,? unsaturated carbonyls>
YES

>  <NA31c.Halogenated dibenzodioxins  (Nongenotoxic carcinogens)>
NO

$$$$
iss2_807
  ACD/Labs1026071639

 28 31  0  0  0  0  0  0  0  0  1 V2000
    6.3998   -5.7120    0.0000 C   0  0  0  0  0  0  0  0  0  0  0  0
    5.2574   -5.0476    0.0000 C   0  0  0  0  0  0  0  0  0  0  0  0
    5.1175   -3.7303    0.0000 C   0  0  0  0  0  0  0  0  0  0  0  0
    3.8119   -3.4505    0.0000 C   0  0  0  0  0  0  0  0  0  0  0  0
    3.1475   -2.2965    0.0000 C   0  0  0  0  0  0  0  0  0  0  0  0
    1.8185   -2.2965    0.0000 C   0  0  0  0  0  0  0  0  0  0  0  0
    1.1541   -1.1424    0.0000 S   0  0  0  0  0  0  0  0  0  0  0  0
    0.0000   -1.8069    0.0000 O   0  0  0  0  0  0  0  0  0  0  0  0
    2.3081   -0.4779    0.0000 O   0  0  0  0  0  0  0  0  0  0  0  0
    0.4896   -0.0000    0.0000 O   0  0  0  0  0  0  0  0  0  0  0  0
    1.1541   -3.4505    0.0000 C   0  0  0  0  0  0  0  0  0  0  0  0
    1.8185   -4.6046    0.0000 C   0  0  0  0  0  0  0  0  0  0  0  0
    3.1475   -4.6046    0.0000 C   0  0  0  0  0  0  0  0  0  0  0  0
    4.0334   -5.5955    0.0000 N   0  0  0  0  0  0  0  0  0  0  0  0
    6.0967   -2.8327    0.0000 O   0  0  0  0  0  0  0  0  0  0  0  0
    6.5397   -7.0410    0.0000 C   0  0  0  0  0  0  0  0  0  0  0  0
    7.8453   -7.3207    0.0000 C   0  0  0  0  0  0  0  0  0  0  0  0
    8.5098   -8.4632    0.0000 C   0  0  0  0  0  0  0  0  0  0  0  0
    9.8387   -8.4632    0.0000 C   0  0  0  0  0  0  0  0  0  0  0  0
   10.5032   -9.6172    0.0000 S   0  0  0  0  0  0  0  0  0  0  0  0
    9.3491  -10.2817    0.0000 O   0  0  0  0  0  0  0  0  0  0  0  0
   11.6572   -8.9528    0.0000 O   0  0  0  0  0  0  0  0  0  0  0  0
   11.1676  -10.7713    0.0000 O   0  0  0  0  0  0  0  0  0  0  0  0
   10.5032   -7.3207    0.0000 C   0  0  0  0  0  0  0  0  0  0  0  0
    9.8387   -6.1667    0.0000 C   0  0  0  0  0  0  0  0  0  0  0  0
    8.5098   -6.1667    0.0000 C   0  0  0  0  0  0  0  0  0  0  0  0
    7.6238   -5.1758    0.0000 N   0  0  0  0  0  0  0  0  0  0  0  0
    5.5605   -7.9269    0.0000 O   0  0  0  0  0  0  0  0  0  0  0  0
  1  2  2  0  0  0  0
  1 16  1  0  0  0  0
  1 27  1  0  0  0  0
  2  3  1  0  0  0  0
  2 14  1  0  0  0  0
  3  4  1  0  0  0  0
  3 15  2  0  0  0  0
  4  5  2  0  0  0  0
  4 13  1  0  0  0  0
  5  6  1  0  0  0  0
  6  7  1  0  0  0  0
  6 11  2  0  0  0  0
  7  8  2  0  0  0  0
  7  9  2  0  0  0  0
  7 10  1  0  0  0  0
 11 12  1  0  0  0  0
 12 13  2  0  0  0  0
 13 14  1  0  0  0  0
 16 17  1  0  0  0  0
 16 28  2  0  0  0  0
 17 18  2  0  0  0  0
 17 26  1  0  0  0  0
 18 19  1  0  0  0  0
 19 20  1  0  0  0  0
 19 24  2  0  0  0  0
 20 21  2  0  0  0  0
 20 22  2  0  0  0  0
 20 23  1  0  0  0  0
 24 25  1  0  0  0  0
 25 26  2  0  0  0  0
 26 27  1  0  0  0  0
M  END
>  <ID>
32

>  <Formula>
C16H10N2O8S2

>  <FW>
422.3913

>  <NA28.Primary aromatic amine, hydroxyl amine and its derived esters (with restrictions)>
NO

>  <NA15.Isocyanate and isothiocyanate groups>
NO

>  <NA25.Aromatic nitroso group>
NO

>  <SAL_iss2_>
1.0

>  <NA20.(Poly) Halogenated Cycloalkanes (Nongenotoxic carcinogens)>
NO

>  <Proceed with QSAR6 and QSAR8?.User input>
NO

>  <Canc_iss2_>
2.0

>  <QSAR8.Carcinogenicity in rodents (mice, rats); aromatic amines>
NO

>  <NA30.Coumarins and Furocoumarins>
NO

>  <NA31b.Halogenated PAH (naphthalenes, biphenyls, diphenyls)  (Nongenotoxic carcinogens)>
NO

>  <NA22.Azide and triazene groups>
NO

>  <QSAR6,8 applicable?.Aromatic amine without sulfonic group on the same ring>
NO

>  <ar-N=CH2.Derived aromatic amines>
NO

>  <NA13.Hydrazine>
NO

>  <NA24.?,? unsaturated alkoxy (linear)>
NO

>  <NA28ter.Aromatic N-acyl amine>
NO

>  <Title>
iss2_807

>  <NA16.Alkyl carbamate and thiocarbamate>
NO

>  <Substance ID>
iss2_807

>  <Proceed with QSAR13?.User input>
NO

>  <NA2.Alkyl (C<5) or benzyl ester of sulphonic or phosphonic acid>
NO

>  <NA12.Quinones>
NO

>  <QSAR6.Mutagenic activity in Salmonella typhimurium TA100, with S9 metabolic activation; aromatic amines.>
NO

>  <aN=Na.Aromatic diazo>
NO

>  <NA29.Aromatic diazo>
NO

>  <NA7.Epoxides and aziridines>
NO

>  <NA4.Monohaloalkene>
NO

>  <NA18.Polycyclic Aromatic Hydrocarbons>
NO

>  <NA3.N-methylol derivatives>
NO

>  <NA23.Aliphatic N-nitro>
NO

>  <NA6.Propiolactones and propiosultones>
NO

>  <NA1.Acyl halides>
NO

>  <QSAR13.Mutagenic activity in Salmonella typhimurium TA100;  ?,?-unsaturated  aliphatic aldehydes.>
NO

>  <NA5.S or N mustard>
NO

>  <NA17.Thiocarbonyl (Nongenotoxic carcinogens)>
NO

>  <NA27.Nitro aromatic>
NO

>  <NA19.Heterocyclic Polycyclic Aromatic Hydrocarbons>
NO

>  <NA8.Aliphatic halogens>
NO

>  <NA14.Aliphatic azo and azoxy>
NO

>  <NA11.Simple aldehyde>
NO

>  <NA26.Aromatic ring N-oxide>
NO

>  <NA31a.Halogenated benzene  (Nongenotoxic carcinogens)>
NO

>  <QSAR13 applicable?.?,? unsaturated aldehyde>
NO

>  <NA9.Alkyl nitrite>
NO

>  <NA28bis.Aromatic mono- and dialkylamine>
NO

>  <NA21.Alkyl and aryl N-nitroso groups>
NO

>  <NA10.?,? unsaturated carbonyls>
YES

>  <NA31c.Halogenated dibenzodioxins  (Nongenotoxic carcinogens)>
NO

$$$$
iss2_808
  ACD/Labs1026071639

 31 35  0  0  1  0  0  0  0  0  1 V2000
    8.4950   -1.1023    0.0000 C   0  0  0  0  0  0  0  0  0  0  0  0
    7.9218   -2.2781    0.0000 C   0  0  0  0  0  0  0  0  0  0  0  0
    9.2152   -2.5573    0.0000 C   0  0  0  0  0  0  0  0  0  0  0  0
    9.3474   -3.8654    0.0000 C   0  0  0  0  0  0  0  0  0  0  0  0
    8.1423   -4.4092    0.0000 C   0  0  0  0  0  0  0  0  0  0  0  0
    7.2604   -3.4245    0.0000 C   0  0  0  0  0  0  0  0  0  0  0  0
    5.9377   -3.4245    0.0000 C   0  0  0  0  0  0  0  0  0  0  0  0
    5.2763   -2.2781    0.0000 C   0  0  0  0  0  0  0  0  0  0  0  0
    3.9536   -2.2781    0.0000 C   0  0  0  0  0  0  0  0  0  0  0  0
    3.2922   -3.4245    0.0000 C   0  0  0  0  0  0  0  0  0  0  0  0
    1.9841   -3.4245    0.0000 C   0  0  0  0  0  0  0  0  0  0  0  0
    1.3228   -2.2781    0.0000 C   0  0  0  0  0  0  0  0  0  0  0  0
    0.0000   -2.2781    0.0000 O   0  0  0  0  0  0  0  0  0  0  0  0
    1.9841   -1.1464    0.0000 C   0  0  0  0  0  0  0  0  0  0  0  0
    3.2922   -1.1464    0.0000 C   0  0  0  0  0  0  0  0  0  0  0  0
    3.9536   -4.5708    0.0000 C   0  0  0  0  0  0  0  0  0  0  0  0
    5.2763   -4.5708    0.0000 C   0  0  0  0  0  0  0  0  0  0  0  0
    4.6149   -1.1464    0.0000 C   0  0  0  0  0  0  0  0  0  0  0  0
    5.9377   -1.1464    0.0000 C   0  0  0  0  0  0  0  0  0  0  0  0
    7.2604   -1.1464    0.0000 C   0  0  0  0  0  0  0  0  0  0  0  0
    5.2763   -0.0000    0.0000 O   0  0  0  0  0  0  0  0  0  0  0  0
   10.6408   -4.1446    0.0000 O   0  0  0  0  0  0  0  0  0  0  0  0
   11.3022   -2.9982    0.0000 C   0  0  0  0  0  0  0  0  0  0  0  0
   10.4203   -2.0282    0.0000 O   0  0  0  0  0  0  0  0  0  0  0  0
   12.6102   -2.8660    0.0000 C   0  0  0  0  0  0  0  0  0  0  0  0
   13.3892   -3.9389    0.0000 C   0  0  0  0  0  0  0  0  0  0  0  0
   14.6972   -3.7919    0.0000 C   0  0  0  0  0  0  0  0  0  0  0  0
    9.3327   -0.8524    0.0000 C   0  0  0  0  0  0  0  0  0  0  0  0
    8.2304   -0.1176    0.0000 O   0  0  0  0  0  0  0  0  0  0  0  0
   10.5085   -0.2646    0.0000 C   0  0  0  0  0  0  0  0  0  0  0  0
   11.6108   -1.0141    0.0000 O   0  0  0  0  0  0  0  0  0  0  0  0
  2  1  1  1  0  0  0
  2  3  1  0  0  0  0
  2  6  1  0  0  0  0
  2 20  1  0  0  0  0
  3  4  1  0  0  0  0
  3 24  1  0  0  0  0
  3 28  1  6  0  0  0
  4  5  1  0  0  0  0
  4 22  1  6  0  0  0
  5  6  1  0  0  0  0
  6  7  1  0  0  0  0
  7  8  1  0  0  0  0
  7 17  1  0  0  0  0
  8  9  1  0  0  0  0
  8 19  1  0  0  0  0
  9 10  1  0  0  0  0
  9 15  1  0  0  0  0
  9 18  1  1  0  0  0
 10 11  2  0  0  0  0
 10 16  1  0  0  0  0
 11 12  1  0  0  0  0
 12 13  2  0  0  0  0
 12 14  1  0  0  0  0
 14 15  2  0  0  0  0
 16 17  1  0  0  0  0
 19 20  1  0  0  0  0
 19 21  1  1  0  0  0
 22 23  1  0  0  0  0
 23 24  1  0  0  0  0
 23 25  1  0  0  0  0
 25 26  1  0  0  0  0
 26 27  1  0  0  0  0
 28 29  2  0  0  0  0
 28 30  1  0  0  0  0
 30 31  1  0  0  0  0
M  END
>  <ID>
33

>  <Formula>
C25H34O6

>  <FW>
430.5339

>  <NA28.Primary aromatic amine, hydroxyl amine and its derived esters (with restrictions)>
NO

>  <NA15.Isocyanate and isothiocyanate groups>
NO

>  <NA25.Aromatic nitroso group>
NO

>  <SAL_iss2_>
0.0

>  <NA20.(Poly) Halogenated Cycloalkanes (Nongenotoxic carcinogens)>
NO

>  <Proceed with QSAR6 and QSAR8?.User input>
NO

>  <Canc_iss2_>
3.0

>  <QSAR8.Carcinogenicity in rodents (mice, rats); aromatic amines>
NO

>  <NA30.Coumarins and Furocoumarins>
NO

>  <NA31b.Halogenated PAH (naphthalenes, biphenyls, diphenyls)  (Nongenotoxic carcinogens)>
NO

>  <NA22.Azide and triazene groups>
NO

>  <QSAR6,8 applicable?.Aromatic amine without sulfonic group on the same ring>
NO

>  <ar-N=CH2.Derived aromatic amines>
NO

>  <NA13.Hydrazine>
NO

>  <NA24.?,? unsaturated alkoxy (linear)>
NO

>  <NA28ter.Aromatic N-acyl amine>
NO

>  <Title>
iss2_808

>  <NA16.Alkyl carbamate and thiocarbamate>
NO

>  <Substance ID>
iss2_808

>  <Proceed with QSAR13?.User input>
NO

>  <NA2.Alkyl (C<5) or benzyl ester of sulphonic or phosphonic acid>
NO

>  <NA12.Quinones>
NO

>  <QSAR6.Mutagenic activity in Salmonella typhimurium TA100, with S9 metabolic activation; aromatic amines.>
NO

>  <aN=Na.Aromatic diazo>
NO

>  <NA29.Aromatic diazo>
NO

>  <NA7.Epoxides and aziridines>
NO

>  <NA4.Monohaloalkene>
NO

>  <NA18.Polycyclic Aromatic Hydrocarbons>
NO

>  <NA3.N-methylol derivatives>
NO

>  <NA23.Aliphatic N-nitro>
NO

>  <NA6.Propiolactones and propiosultones>
NO

>  <NA1.Acyl halides>
NO

>  <QSAR13.Mutagenic activity in Salmonella typhimurium TA100;  ?,?-unsaturated  aliphatic aldehydes.>
NO

>  <NA5.S or N mustard>
NO

>  <NA17.Thiocarbonyl (Nongenotoxic carcinogens)>
NO

>  <NA27.Nitro aromatic>
NO

>  <NA19.Heterocyclic Polycyclic Aromatic Hydrocarbons>
NO

>  <NA8.Aliphatic halogens>
NO

>  <NA14.Aliphatic azo and azoxy>
NO

>  <NA11.Simple aldehyde>
NO

>  <NA26.Aromatic ring N-oxide>
NO

>  <NA31a.Halogenated benzene  (Nongenotoxic carcinogens)>
NO

>  <QSAR13 applicable?.?,? unsaturated aldehyde>
NO

>  <NA9.Alkyl nitrite>
NO

>  <NA28bis.Aromatic mono- and dialkylamine>
NO

>  <NA21.Alkyl and aryl N-nitroso groups>
NO

>  <NA10.?,? unsaturated carbonyls>
YES

>  <NA31c.Halogenated dibenzodioxins  (Nongenotoxic carcinogens)>
NO

$$$$
iss2_830
  ACD/Labs1026071639

 18 19  0  0  1  0  0  0  0  0  1 V2000
    4.6531   -0.0000    0.0000 C   0  0  0  0  0  0  0  0  0  0  0  0
    3.9906   -1.1493    0.0000 C   0  0  0  0  0  0  0  0  0  0  0  0
    4.6531   -2.2986    0.0000 C   0  0  0  0  0  0  0  0  0  0  0  0
    3.9906   -3.4559    0.0000 C   0  0  0  0  0  0  0  0  0  0  0  0
    4.6531   -4.6052    0.0000 C   0  0  0  0  0  0  0  0  0  0  0  0
    5.9859   -4.6052    0.0000 O   0  0  0  0  0  0  0  0  0  0  0  0
    6.6484   -3.4559    0.0000 C   0  0  0  0  0  0  0  0  0  0  0  0
    5.9859   -2.2986    0.0000 C   0  0  0  0  0  0  0  0  0  0  0  0
    6.6484   -1.1493    0.0000 C   0  0  0  0  0  0  0  0  0  0  0  0
    7.9813   -3.4559    0.0000 C   0  0  0  0  0  0  0  0  0  0  0  0
    2.6578   -3.4559    0.0000 C   0  0  0  0  0  0  0  0  0  0  0  0
    1.9953   -2.2986    0.0000 C   0  0  0  0  0  0  0  0  0  0  0  0
    2.6578   -1.1493    0.0000 C   0  0  0  0  0  0  0  0  0  0  0  0
    1.9953   -0.0000    0.0000 O   0  0  0  0  0  0  0  0  0  0  0  0
    0.6624   -2.2986    0.0000 C   0  0  0  0  0  0  0  0  0  0  0  0
    0.0000   -1.1493    0.0000 O   0  0  0  0  0  0  0  0  0  0  0  0
    0.0000   -3.4559    0.0000 O   0  0  0  0  0  0  0  0  0  0  0  0
    1.9953   -4.6052    0.0000 O   0  0  0  0  0  0  0  0  0  0  0  0
  1  2  1  0  0  0  0
  2  3  2  0  0  0  0
  2 13  1  0  0  0  0
  3  4  1  0  0  0  0
  3  8  1  0  0  0  0
  4  5  2  0  0  0  0
  4 11  1  0  0  0  0
  5  6  1  0  0  0  0
  6  7  1  0  0  0  0
  7  8  1  0  0  0  0
  7 10  1  6  0  0  0
  8  9  1  1  0  0  0
 11 12  2  0  0  0  0
 11 18  1  0  0  0  0
 12 13  1  0  0  0  0
 12 15  1  0  0  0  0
 13 14  2  0  0  0  0
 15 16  2  0  0  0  0
 15 17  1  0  0  0  0
M  END
>  <ID>
34

>  <Formula>
C13H14O5

>  <FW>
250.2473

>  <NA28.Primary aromatic amine, hydroxyl amine and its derived esters (with restrictions)>
NO

>  <NA15.Isocyanate and isothiocyanate groups>
NO

>  <NA25.Aromatic nitroso group>
NO

>  <SAL_iss2_>
1.0

>  <NA20.(Poly) Halogenated Cycloalkanes (Nongenotoxic carcinogens)>
NO

>  <Proceed with QSAR6 and QSAR8?.User input>
NO

>  <Canc_iss2_>
3.0

>  <QSAR8.Carcinogenicity in rodents (mice, rats); aromatic amines>
NO

>  <NA30.Coumarins and Furocoumarins>
NO

>  <NA31b.Halogenated PAH (naphthalenes, biphenyls, diphenyls)  (Nongenotoxic carcinogens)>
NO

>  <NA22.Azide and triazene groups>
NO

>  <QSAR6,8 applicable?.Aromatic amine without sulfonic group on the same ring>
NO

>  <ar-N=CH2.Derived aromatic amines>
NO

>  <NA13.Hydrazine>
NO

>  <NA24.?,? unsaturated alkoxy (linear)>
NO

>  <NA28ter.Aromatic N-acyl amine>
NO

>  <Title>
iss2_830

>  <NA16.Alkyl carbamate and thiocarbamate>
NO

>  <Substance ID>
iss2_830

>  <Proceed with QSAR13?.User input>
NO

>  <NA2.Alkyl (C<5) or benzyl ester of sulphonic or phosphonic acid>
NO

>  <NA12.Quinones>
NO

>  <QSAR6.Mutagenic activity in Salmonella typhimurium TA100, with S9 metabolic activation; aromatic amines.>
NO

>  <aN=Na.Aromatic diazo>
NO

>  <NA29.Aromatic diazo>
NO

>  <NA7.Epoxides and aziridines>
NO

>  <NA4.Monohaloalkene>
NO

>  <NA18.Polycyclic Aromatic Hydrocarbons>
NO

>  <NA3.N-methylol derivatives>
NO

>  <NA23.Aliphatic N-nitro>
NO

>  <NA6.Propiolactones and propiosultones>
NO

>  <NA1.Acyl halides>
NO

>  <QSAR13.Mutagenic activity in Salmonella typhimurium TA100;  ?,?-unsaturated  aliphatic aldehydes.>
NO

>  <NA5.S or N mustard>
NO

>  <NA17.Thiocarbonyl (Nongenotoxic carcinogens)>
NO

>  <NA27.Nitro aromatic>
NO

>  <NA19.Heterocyclic Polycyclic Aromatic Hydrocarbons>
NO

>  <NA8.Aliphatic halogens>
NO

>  <NA14.Aliphatic azo and azoxy>
NO

>  <NA11.Simple aldehyde>
NO

>  <NA26.Aromatic ring N-oxide>
NO

>  <NA31a.Halogenated benzene  (Nongenotoxic carcinogens)>
NO

>  <QSAR13 applicable?.?,? unsaturated aldehyde>
NO

>  <NA9.Alkyl nitrite>
NO

>  <NA28bis.Aromatic mono- and dialkylamine>
NO

>  <NA21.Alkyl and aryl N-nitroso groups>
NO

>  <NA10.?,? unsaturated carbonyls>
NO

>  <NA31c.Halogenated dibenzodioxins  (Nongenotoxic carcinogens)>
NO

$$$$
iss2_831
  ACD/Labs1026071639

 27 29  0  0  1  0  0  0  0  0  1 V2000
    5.7649   -8.4928    0.0000 C   0  0  0  0  0  0  0  0  0  0  0  0
    5.7649   -7.1565    0.0000 O   0  0  0  0  0  0  0  0  0  0  0  0
    4.6053   -6.4938    0.0000 C   0  0  0  0  0  0  0  0  0  0  0  0
    3.4568   -7.1565    0.0000 C   0  0  0  0  0  0  0  0  0  0  0  0
    2.3082   -6.4938    0.0000 C   0  0  0  0  0  0  0  0  0  0  0  0
    2.3082   -5.1575    0.0000 C   0  0  0  0  0  0  0  0  0  0  0  0
    3.4568   -4.4949    0.0000 C   0  0  0  0  0  0  0  0  0  0  0  0
    4.6053   -5.1575    0.0000 C   0  0  0  0  0  0  0  0  0  0  0  0
    5.8533   -4.6716    0.0000 C   0  0  0  0  0  0  0  0  0  0  0  0
    6.6043   -5.7760    0.0000 C   0  0  0  0  0  0  0  0  0  0  0  0
    7.9075   -5.8533    0.0000 C   0  0  0  0  0  0  0  0  0  0  0  0
    8.8462   -4.9146    0.0000 C   0  0  0  0  0  0  0  0  0  0  0  0
   10.1052   -5.2901    0.0000 O   0  0  0  0  0  0  0  0  0  0  0  0
   11.0440   -4.3513    0.0000 C   0  0  0  0  0  0  0  0  0  0  0  0
    8.6364   -3.5893    0.0000 C   0  0  0  0  0  0  0  0  0  0  0  0
    9.7297   -2.8383    0.0000 O   0  0  0  0  0  0  0  0  0  0  0  0
    7.4768   -2.9156    0.0000 C   0  0  0  0  0  0  0  0  0  0  0  0
    6.2398   -3.4015    0.0000 C   0  0  0  0  0  0  0  0  0  0  0  0
    5.4888   -2.3082    0.0000 C   0  0  0  0  0  0  0  0  0  0  0  0
    6.1625   -1.1486    0.0000 N   0  0  0  0  0  0  0  0  0  0  0  0
    5.4888   -0.0000    0.0000 C   0  0  0  0  0  0  0  0  0  0  0  0
    4.1857   -2.2198    0.0000 C   0  0  0  0  0  0  0  0  0  0  0  0
    3.2469   -3.1696    0.0000 C   0  0  0  0  0  0  0  0  0  0  0  0
    1.1486   -7.1565    0.0000 O   0  0  0  0  0  0  0  0  0  0  0  0
    0.0000   -6.4938    0.0000 C   0  0  0  0  0  0  0  0  0  0  0  0
    3.4568   -8.4928    0.0000 O   0  0  0  0  0  0  0  0  0  0  0  0
    2.3082   -9.1554    0.0000 C   0  0  0  0  0  0  0  0  0  0  0  0
  1  2  1  0  0  0  0
  2  3  1  0  0  0  0
  3  4  2  0  0  0  0
  3  8  1  0  0  0  0
  4  5  1  0  0  0  0
  4 26  1  0  0  0  0
  5  6  2  0  0  0  0
  5 24  1  0  0  0  0
  6  7  1  0  0  0  0
  7  8  2  0  0  0  0
  7 23  1  0  0  0  0
  8  9  1  0  0  0  0
  9 10  2  0  0  0  0
  9 18  1  0  0  0  0
 10 11  1  0  0  0  0
 11 12  2  0  0  0  0
 12 13  1  0  0  0  0
 12 15  1  0  0  0  0
 13 14  1  0  0  0  0
 15 16  2  0  0  0  0
 15 17  1  0  0  0  0
 17 18  2  0  0  0  0
 18 19  1  0  0  0  0
 19 20  1  6  0  0  0
 19 22  1  0  0  0  0
 20 21  1  0  0  0  0
 22 23  1  0  0  0  0
 24 25  1  0  0  0  0
 26 27  1  0  0  0  0
M  END
>  <ID>
35

>  <Formula>
C21H25NO5

>  <FW>
371.4269

>  <NA28.Primary aromatic amine, hydroxyl amine and its derived esters (with restrictions)>
NO

>  <NA15.Isocyanate and isothiocyanate groups>
NO

>  <NA25.Aromatic nitroso group>
NO

>  <SAL_iss2_>
1.0

>  <NA20.(Poly) Halogenated Cycloalkanes (Nongenotoxic carcinogens)>
NO

>  <Proceed with QSAR6 and QSAR8?.User input>
NO

>  <Canc_iss2_>
3.0

>  <QSAR8.Carcinogenicity in rodents (mice, rats); aromatic amines>
NO

>  <NA30.Coumarins and Furocoumarins>
NO

>  <NA31b.Halogenated PAH (naphthalenes, biphenyls, diphenyls)  (Nongenotoxic carcinogens)>
NO

>  <NA22.Azide and triazene groups>
NO

>  <QSAR6,8 applicable?.Aromatic amine without sulfonic group on the same ring>
NO

>  <ar-N=CH2.Derived aromatic amines>
NO

>  <NA13.Hydrazine>
NO

>  <NA24.?,? unsaturated alkoxy (linear)>
NO

>  <NA28ter.Aromatic N-acyl amine>
NO

>  <Title>
iss2_831

>  <NA16.Alkyl carbamate and thiocarbamate>
NO

>  <Substance ID>
iss2_831

>  <Proceed with QSAR13?.User input>
NO

>  <NA2.Alkyl (C<5) or benzyl ester of sulphonic or phosphonic acid>
NO

>  <NA12.Quinones>
NO

>  <QSAR6.Mutagenic activity in Salmonella typhimurium TA100, with S9 metabolic activation; aromatic amines.>
NO

>  <aN=Na.Aromatic diazo>
NO

>  <NA29.Aromatic diazo>
NO

>  <NA7.Epoxides and aziridines>
NO

>  <NA4.Monohaloalkene>
NO

>  <NA18.Polycyclic Aromatic Hydrocarbons>
NO

>  <NA3.N-methylol derivatives>
NO

>  <NA23.Aliphatic N-nitro>
NO

>  <NA6.Propiolactones and propiosultones>
NO

>  <NA1.Acyl halides>
NO

>  <QSAR13.Mutagenic activity in Salmonella typhimurium TA100;  ?,?-unsaturated  aliphatic aldehydes.>
NO

>  <NA5.S or N mustard>
NO

>  <NA17.Thiocarbonyl (Nongenotoxic carcinogens)>
NO

>  <NA27.Nitro aromatic>
NO

>  <NA19.Heterocyclic Polycyclic Aromatic Hydrocarbons>
NO

>  <NA8.Aliphatic halogens>
NO

>  <NA14.Aliphatic azo and azoxy>
NO

>  <NA11.Simple aldehyde>
NO

>  <NA26.Aromatic ring N-oxide>
NO

>  <NA31a.Halogenated benzene  (Nongenotoxic carcinogens)>
NO

>  <QSAR13 applicable?.?,? unsaturated aldehyde>
NO

>  <NA9.Alkyl nitrite>
NO

>  <NA28bis.Aromatic mono- and dialkylamine>
NO

>  <NA21.Alkyl and aryl N-nitroso groups>
NO

>  <NA10.?,? unsaturated carbonyls>
NO

>  <NA31c.Halogenated dibenzodioxins  (Nongenotoxic carcinogens)>
NO

$$$$
iss2_843
  ACD/Labs1026071639

  9  8  0  0  0  0  0  0  0  0  1 V2000
    3.9897   -2.3035    0.0000 Cl  0  0  0  0  0  0  0  0  0  0  0  0
    2.6582   -2.3035    0.0000 C   0  0  0  0  0  0  0  0  0  0  0  0
    1.9948   -3.4552    0.0000 C   0  0  0  0  0  0  0  0  0  0  0  0
    0.6634   -3.4552    0.0000 C   0  0  0  0  0  0  0  0  0  0  0  0
    0.0000   -2.3035    0.0000 O   0  0  0  0  0  0  0  0  0  0  0  0
    2.6582   -4.6070    0.0000 Cl  0  0  0  0  0  0  0  0  0  0  0  0
    1.9948   -1.1517    0.0000 C   0  0  0  0  0  0  0  0  0  0  0  0
    0.6634   -1.1517    0.0000 O   0  0  0  0  0  0  0  0  0  0  0  0
    2.6582   -0.0000    0.0000 O   0  0  0  0  0  0  0  0  0  0  0  0
  1  2  1  0  0  0  0
  2  3  2  0  0  0  0
  2  7  1  0  0  0  0
  3  4  1  0  0  0  0
  3  6  1  0  0  0  0
  4  5  2  0  0  0  0
  7  8  2  0  0  0  0
  7  9  1  0  0  0  0
M  END
>  <ID>
36

>  <Formula>
C4H2Cl2O3

>  <FW>
168.9623

>  <NA28.Primary aromatic amine, hydroxyl amine and its derived esters (with restrictions)>
NO

>  <NA15.Isocyanate and isothiocyanate groups>
NO

>  <NA25.Aromatic nitroso group>
NO

>  <SAL_iss2_>
3.0

>  <NA20.(Poly) Halogenated Cycloalkanes (Nongenotoxic carcinogens)>
NO

>  <Proceed with QSAR6 and QSAR8?.User input>
NO

>  <Canc_iss2_>
1.0

>  <QSAR8.Carcinogenicity in rodents (mice, rats); aromatic amines>
NO

>  <NA30.Coumarins and Furocoumarins>
NO

>  <NA31b.Halogenated PAH (naphthalenes, biphenyls, diphenyls)  (Nongenotoxic carcinogens)>
NO

>  <NA22.Azide and triazene groups>
NO

>  <QSAR6,8 applicable?.Aromatic amine without sulfonic group on the same ring>
NO

>  <ar-N=CH2.Derived aromatic amines>
NO

>  <NA13.Hydrazine>
NO

>  <NA24.?,? unsaturated alkoxy (linear)>
NO

>  <NA28ter.Aromatic N-acyl amine>
NO

>  <Title>
iss2_843

>  <NA16.Alkyl carbamate and thiocarbamate>
NO

>  <Substance ID>
iss2_843

>  <Proceed with QSAR13?.User input>
NO

>  <NA2.Alkyl (C<5) or benzyl ester of sulphonic or phosphonic acid>
NO

>  <NA12.Quinones>
NO

>  <QSAR6.Mutagenic activity in Salmonella typhimurium TA100, with S9 metabolic activation; aromatic amines.>
NO

>  <aN=Na.Aromatic diazo>
NO

>  <NA29.Aromatic diazo>
NO

>  <NA7.Epoxides and aziridines>
NO

>  <NA4.Monohaloalkene>
NO

>  <NA18.Polycyclic Aromatic Hydrocarbons>
NO

>  <NA3.N-methylol derivatives>
NO

>  <NA23.Aliphatic N-nitro>
NO

>  <NA6.Propiolactones and propiosultones>
NO

>  <NA1.Acyl halides>
NO

>  <QSAR13.Mutagenic activity in Salmonella typhimurium TA100;  ?,?-unsaturated  aliphatic aldehydes.>
YES

>  <NA5.S or N mustard>
NO

>  <NA17.Thiocarbonyl (Nongenotoxic carcinogens)>
NO

>  <NA27.Nitro aromatic>
NO

>  <NA19.Heterocyclic Polycyclic Aromatic Hydrocarbons>
NO

>  <NA8.Aliphatic halogens>
NO

>  <NA14.Aliphatic azo and azoxy>
NO

>  <NA11.Simple aldehyde>
NO

>  <NA26.Aromatic ring N-oxide>
NO

>  <NA31a.Halogenated benzene  (Nongenotoxic carcinogens)>
NO

>  <QSAR13 applicable?.?,? unsaturated aldehyde>
YES

>  <NA9.Alkyl nitrite>
NO

>  <NA28bis.Aromatic mono- and dialkylamine>
NO

>  <NA21.Alkyl and aryl N-nitroso groups>
NO

>  <NA10.?,? unsaturated carbonyls>
NO

>  <NA31c.Halogenated dibenzodioxins  (Nongenotoxic carcinogens)>
NO

$$$$
iss2_866
  ACD/Labs1026071639

 19 21  0  0  0  0  0  0  0  0  1 V2000
    3.4568   -1.9980    0.0000 C   0  0  0  0  0  0  0  0  0  0  0  0
    4.6114   -1.3343    0.0000 C   0  0  0  0  0  0  0  0  0  0  0  0
    5.7591   -1.9980    0.0000 C   0  0  0  0  0  0  0  0  0  0  0  0
    5.7591   -3.3324    0.0000 C   0  0  0  0  0  0  0  0  0  0  0  0
    4.6114   -3.9961    0.0000 C   0  0  0  0  0  0  0  0  0  0  0  0
    3.4568   -3.3324    0.0000 C   0  0  0  0  0  0  0  0  0  0  0  0
    2.3022   -3.9961    0.0000 C   0  0  0  0  0  0  0  0  0  0  0  0
    1.1546   -3.3324    0.0000 C   0  0  0  0  0  0  0  0  0  0  0  0
    1.1546   -1.9980    0.0000 C   0  0  0  0  0  0  0  0  0  0  0  0
    2.3022   -1.3343    0.0000 O   0  0  0  0  0  0  0  0  0  0  0  0
    0.0000   -1.3343    0.0000 O   0  0  0  0  0  0  0  0  0  0  0  0
    0.1659   -4.2173    0.0000 C   0  0  0  0  0  0  0  0  0  0  0  0
    0.7052   -5.4341    0.0000 C   0  0  0  0  0  0  0  0  0  0  0  0
    2.0257   -5.2959    0.0000 C   0  0  0  0  0  0  0  0  0  0  0  0
    2.9176   -6.2845    0.0000 O   0  0  0  0  0  0  0  0  0  0  0  0
    4.6114   -5.3235    0.0000 O   0  0  0  0  0  0  0  0  0  0  0  0
    5.7591   -5.9872    0.0000 C   0  0  0  0  0  0  0  0  0  0  0  0
    6.9137   -1.3343    0.0000 O   0  0  0  0  0  0  0  0  0  0  0  0
    6.9137   -0.0000    0.0000 C   0  0  0  0  0  0  0  0  0  0  0  0
  1  2  2  0  0  0  0
  1  6  1  0  0  0  0
  1 10  1  0  0  0  0
  2  3  1  0  0  0  0
  3  4  2  0  0  0  0
  3 18  1  0  0  0  0
  4  5  1  0  0  0  0
  5  6  2  0  0  0  0
  5 16  1  0  0  0  0
  6  7  1  0  0  0  0
  7  8  2  0  0  0  0
  7 14  1  0  0  0  0
  8  9  1  0  0  0  0
  8 12  1  0  0  0  0
  9 10  1  0  0  0  0
  9 11  2  0  0  0  0
 12 13  1  0  0  0  0
 13 14  1  0  0  0  0
 14 15  2  0  0  0  0
 16 17  1  0  0  0  0
 18 19  1  0  0  0  0
M  END
>  <ID>
37

>  <Formula>
C14H12O5

>  <FW>
260.2421

>  <NA28.Primary aromatic amine, hydroxyl amine and its derived esters (with restrictions)>
NO

>  <NA15.Isocyanate and isothiocyanate groups>
NO

>  <NA25.Aromatic nitroso group>
NO

>  <SAL_iss2_>
0.0

>  <NA20.(Poly) Halogenated Cycloalkanes (Nongenotoxic carcinogens)>
NO

>  <Proceed with QSAR6 and QSAR8?.User input>
NO

>  <Canc_iss2_>
3.0

>  <QSAR8.Carcinogenicity in rodents (mice, rats); aromatic amines>
NO

>  <NA30.Coumarins and Furocoumarins>
YES

>  <NA31b.Halogenated PAH (naphthalenes, biphenyls, diphenyls)  (Nongenotoxic carcinogens)>
NO

>  <NA22.Azide and triazene groups>
NO

>  <QSAR6,8 applicable?.Aromatic amine without sulfonic group on the same ring>
NO

>  <ar-N=CH2.Derived aromatic amines>
NO

>  <NA13.Hydrazine>
NO

>  <NA24.?,? unsaturated alkoxy (linear)>
NO

>  <NA28ter.Aromatic N-acyl amine>
NO

>  <Title>
iss2_866

>  <NA16.Alkyl carbamate and thiocarbamate>
NO

>  <Substance ID>
iss2_866

>  <Proceed with QSAR13?.User input>
NO

>  <NA2.Alkyl (C<5) or benzyl ester of sulphonic or phosphonic acid>
NO

>  <NA12.Quinones>
NO

>  <QSAR6.Mutagenic activity in Salmonella typhimurium TA100, with S9 metabolic activation; aromatic amines.>
NO

>  <aN=Na.Aromatic diazo>
NO

>  <NA29.Aromatic diazo>
NO

>  <NA7.Epoxides and aziridines>
NO

>  <NA4.Monohaloalkene>
NO

>  <NA18.Polycyclic Aromatic Hydrocarbons>
NO

>  <NA3.N-methylol derivatives>
NO

>  <NA23.Aliphatic N-nitro>
NO

>  <NA6.Propiolactones and propiosultones>
NO

>  <NA1.Acyl halides>
NO

>  <QSAR13.Mutagenic activity in Salmonella typhimurium TA100;  ?,?-unsaturated  aliphatic aldehydes.>
NO

>  <NA5.S or N mustard>
NO

>  <NA17.Thiocarbonyl (Nongenotoxic carcinogens)>
NO

>  <NA27.Nitro aromatic>
NO

>  <NA19.Heterocyclic Polycyclic Aromatic Hydrocarbons>
NO

>  <NA8.Aliphatic halogens>
NO

>  <NA14.Aliphatic azo and azoxy>
NO

>  <NA11.Simple aldehyde>
NO

>  <NA26.Aromatic ring N-oxide>
NO

>  <NA31a.Halogenated benzene  (Nongenotoxic carcinogens)>
NO

>  <QSAR13 applicable?.?,? unsaturated aldehyde>
NO

>  <NA9.Alkyl nitrite>
NO

>  <NA28bis.Aromatic mono- and dialkylamine>
NO

>  <NA21.Alkyl and aryl N-nitroso groups>
NO

>  <NA10.?,? unsaturated carbonyls>
NO

>  <NA31c.Halogenated dibenzodioxins  (Nongenotoxic carcinogens)>
NO

$$$$
iss2_874
  ACD/Labs1026071639

 17 18  0  0  0  0  0  0  0  0  1 V2000
    4.5841   -4.6595    0.0000 O   0  0  0  0  0  0  0  0  0  0  0  0
    4.8607   -3.3522    0.0000 C   0  0  0  0  0  0  0  0  0  0  0  0
    3.9723   -2.3633    0.0000 N   0  0  0  0  0  0  0  0  0  0  0  0
    2.6482   -2.5058    0.0000 C   0  0  0  0  0  0  0  0  0  0  0  0
    2.1035   -3.7209    0.0000 C   0  0  0  0  0  0  0  0  0  0  0  0
    0.7794   -3.8634    0.0000 C   0  0  0  0  0  0  0  0  0  0  0  0
    0.0000   -2.7823    0.0000 C   0  0  0  0  0  0  0  0  0  0  0  0
    0.5447   -1.5671    0.0000 C   0  0  0  0  0  0  0  0  0  0  0  0
    1.8605   -1.4331    0.0000 C   0  0  0  0  0  0  0  0  0  0  0  0
    4.6344   -1.2152    0.0000 N   0  0  0  0  0  0  0  0  0  0  0  0
    5.9334   -1.4917    0.0000 C   0  0  0  0  0  0  0  0  0  0  0  0
    6.0758   -2.8158    0.0000 C   0  0  0  0  0  0  0  0  0  0  0  0
    7.2323   -3.4779    0.0000 N   0  0  0  0  0  0  0  0  0  0  0  0
    8.3804   -2.8158    0.0000 C   0  0  0  0  0  0  0  0  0  0  0  0
    7.2323   -4.8104    0.0000 C   0  0  0  0  0  0  0  0  0  0  0  0
    6.9222   -0.6034    0.0000 C   0  0  0  0  0  0  0  0  0  0  0  0
    4.0980   -0.0000    0.0000 C   0  0  0  0  0  0  0  0  0  0  0  0
  1  2  2  0  0  0  0
  2  3  1  0  0  0  0
  2 12  1  0  0  0  0
  3  4  1  0  0  0  0
  3 10  1  0  0  0  0
  4  5  2  0  0  0  0
  4  9  1  0  0  0  0
  5  6  1  0  0  0  0
  6  7  2  0  0  0  0
  7  8  1  0  0  0  0
  8  9  2  0  0  0  0
 10 11  1  0  0  0  0
 10 17  1  0  0  0  0
 11 12  2  0  0  0  0
 11 16  1  0  0  0  0
 12 13  1  0  0  0  0
 13 14  1  0  0  0  0
 13 15  1  0  0  0  0
M  END
>  <ID>
38

>  <Formula>
C13H17N3O

>  <FW>
231.2937

>  <NA28.Primary aromatic amine, hydroxyl amine and its derived esters (with restrictions)>
NO

>  <NA15.Isocyanate and isothiocyanate groups>
NO

>  <NA25.Aromatic nitroso group>
NO

>  <SAL_iss2_>
1.0

>  <NA20.(Poly) Halogenated Cycloalkanes (Nongenotoxic carcinogens)>
NO

>  <Proceed with QSAR6 and QSAR8?.User input>
NO

>  <Canc_iss2_>
1.0

>  <QSAR8.Carcinogenicity in rodents (mice, rats); aromatic amines>
NO

>  <NA30.Coumarins and Furocoumarins>
NO

>  <NA31b.Halogenated PAH (naphthalenes, biphenyls, diphenyls)  (Nongenotoxic carcinogens)>
NO

>  <NA22.Azide and triazene groups>
NO

>  <QSAR6,8 applicable?.Aromatic amine without sulfonic group on the same ring>
YES

>  <ar-N=CH2.Derived aromatic amines>
NO

>  <NA13.Hydrazine>
NO

>  <NA24.?,? unsaturated alkoxy (linear)>
NO

>  <NA28ter.Aromatic N-acyl amine>
NO

>  <Title>
iss2_874

>  <NA16.Alkyl carbamate and thiocarbamate>
NO

>  <Substance ID>
iss2_874

>  <Proceed with QSAR13?.User input>
NO

>  <NA2.Alkyl (C<5) or benzyl ester of sulphonic or phosphonic acid>
NO

>  <NA12.Quinones>
NO

>  <QSAR6.Mutagenic activity in Salmonella typhimurium TA100, with S9 metabolic activation; aromatic amines.>
YES

>  <aN=Na.Aromatic diazo>
NO

>  <NA29.Aromatic diazo>
NO

>  <NA7.Epoxides and aziridines>
NO

>  <NA4.Monohaloalkene>
NO

>  <NA18.Polycyclic Aromatic Hydrocarbons>
NO

>  <NA3.N-methylol derivatives>
NO

>  <NA23.Aliphatic N-nitro>
NO

>  <NA6.Propiolactones and propiosultones>
NO

>  <NA1.Acyl halides>
NO

>  <QSAR13.Mutagenic activity in Salmonella typhimurium TA100;  ?,?-unsaturated  aliphatic aldehydes.>
NO

>  <NA5.S or N mustard>
NO

>  <NA17.Thiocarbonyl (Nongenotoxic carcinogens)>
NO

>  <NA27.Nitro aromatic>
NO

>  <NA19.Heterocyclic Polycyclic Aromatic Hydrocarbons>
NO

>  <NA8.Aliphatic halogens>
NO

>  <NA14.Aliphatic azo and azoxy>
NO

>  <NA11.Simple aldehyde>
NO

>  <NA26.Aromatic ring N-oxide>
NO

>  <NA31a.Halogenated benzene  (Nongenotoxic carcinogens)>
NO

>  <QSAR13 applicable?.?,? unsaturated aldehyde>
NO

>  <NA9.Alkyl nitrite>
NO

>  <NA28bis.Aromatic mono- and dialkylamine>
NO

>  <NA21.Alkyl and aryl N-nitroso groups>
NO

>  <NA10.?,? unsaturated carbonyls>
NO

>  <NA31c.Halogenated dibenzodioxins  (Nongenotoxic carcinogens)>
NO

$$$$
iss2_346
  ACD/Labs1026071639

 24 26  0  0  1  0  0  0  0  0  1 V2000
    6.8223   -2.7246    0.0000 C   0  0  0  0  0  0  0  0  0  0  0  0
    7.3265   -1.5447    0.0000 C   0  0  0  0  0  0  0  0  0  0  0  0
    8.6781   -1.5447    0.0000 C   0  0  0  0  0  0  0  0  0  0  0  0
    9.3753   -2.7246    0.0000 C   0  0  0  0  0  0  0  0  0  0  0  0
    8.6781   -3.9046    0.0000 C   0  0  0  0  0  0  0  0  0  0  0  0
    7.3265   -3.9046    0.0000 C   0  0  0  0  0  0  0  0  0  0  0  0
    6.0178   -1.6198    0.0000 O   0  0  0  0  0  0  0  0  0  0  0  0
    6.0178   -3.8295    0.0000 C   0  0  0  0  0  0  0  0  0  0  0  0
    4.7199   -2.0488    0.0000 C   0  0  0  0  0  0  0  0  0  0  0  0
    4.7199   -3.4004    0.0000 C   0  0  0  0  0  0  0  0  0  0  0  0
    2.3707   -3.4004    0.0000 C   0  0  0  0  0  0  0  0  0  0  0  0
    2.3707   -2.0488    0.0000 C   0  0  0  0  0  0  0  0  0  0  0  0
    3.5506   -4.0977    0.0000 C   0  0  0  0  0  0  0  0  0  0  0  0
    3.5506   -1.3730    0.0000 C   0  0  0  0  0  0  0  0  0  0  0  0
    3.5506   -0.0000    0.0000 Cl  0  0  0  0  0  0  0  0  0  0  0  0
    6.6185   -5.0738    0.0000 O   0  0  0  0  0  0  0  0  0  0  0  0
    6.6185   -0.3862    0.0000 C   0  0  0  0  0  0  0  0  0  0  0  0
    6.3718   -4.4302    0.0000 O   0  0  0  0  0  0  0  0  0  0  0  0
    1.1800   -1.3730    0.0000 O   0  0  0  0  0  0  0  0  0  0  0  0
    0.0000   -2.0488    0.0000 C   0  0  0  0  0  0  0  0  0  0  0  0
    3.5506   -5.4493    0.0000 O   0  0  0  0  0  0  0  0  0  0  0  0
    4.7199   -6.1465    0.0000 C   0  0  0  0  0  0  0  0  0  0  0  0
    7.2729   -6.2753    0.0000 C   0  0  0  0  0  0  0  0  0  0  0  0
   10.7269   -2.7246    0.0000 O   0  0  0  0  0  0  0  0  0  0  0  0
  1  2  1  0  0  0  0
  1  6  1  1  0  0  0
  7  1  1  6  0  0  0
  1  8  1  0  0  0  0
  2  3  1  0  0  0  0
  2 17  1  1  0  0  0
  3  4  1  0  0  0  0
  4  5  1  1  0  0  0
  4 24  2  0  0  0  0
  5  6  2  0  0  0  0
  6 16  1  0  0  0  0
  7  9  1  0  0  0  0
  8 10  1  0  0  0  0
  8 18  2  0  0  0  0
  9 10  2  0  0  0  0
  9 14  1  0  0  0  0
 10 13  1  0  0  0  0
 11 12  1  0  0  0  0
 11 13  2  0  0  0  0
 12 14  2  0  0  0  0
 12 19  1  0  0  0  0
 13 21  1  0  0  0  0
 14 15  1  0  0  0  0
 16 23  1  0  0  0  0
 19 20  1  0  0  0  0
 21 22  1  0  0  0  0
M  END
>  <ID>
39

>  <Formula>
C17H17ClO6

>  <FW>
352.7660

>  <NA28.Primary aromatic amine, hydroxyl amine and its derived esters (with restrictions)>
NO

>  <NA15.Isocyanate and isothiocyanate groups>
NO

>  <NA25.Aromatic nitroso group>
NO

>  <SAL_iss2_>
1.0

>  <NA20.(Poly) Halogenated Cycloalkanes (Nongenotoxic carcinogens)>
NO

>  <Proceed with QSAR6 and QSAR8?.User input>
NO

>  <Canc_iss2_>
3.0

>  <QSAR8.Carcinogenicity in rodents (mice, rats); aromatic amines>
NO

>  <NA30.Coumarins and Furocoumarins>
NO

>  <NA31b.Halogenated PAH (naphthalenes, biphenyls, diphenyls)  (Nongenotoxic carcinogens)>
NO

>  <NA22.Azide and triazene groups>
NO

>  <QSAR6,8 applicable?.Aromatic amine without sulfonic group on the same ring>
NO

>  <ar-N=CH2.Derived aromatic amines>
NO

>  <NA13.Hydrazine>
NO

>  <NA24.?,? unsaturated alkoxy (linear)>
NO

>  <NA28ter.Aromatic N-acyl amine>
NO

>  <Title>
iss2_346

>  <NA16.Alkyl carbamate and thiocarbamate>
NO

>  <Substance ID>
iss2_346

>  <Proceed with QSAR13?.User input>
NO

>  <NA2.Alkyl (C<5) or benzyl ester of sulphonic or phosphonic acid>
NO

>  <NA12.Quinones>
NO

>  <QSAR6.Mutagenic activity in Salmonella typhimurium TA100, with S9 metabolic activation; aromatic amines.>
NO

>  <aN=Na.Aromatic diazo>
NO

>  <NA29.Aromatic diazo>
NO

>  <NA7.Epoxides and aziridines>
NO

>  <NA4.Monohaloalkene>
NO

>  <NA18.Polycyclic Aromatic Hydrocarbons>
NO

>  <NA3.N-methylol derivatives>
NO

>  <NA23.Aliphatic N-nitro>
NO

>  <NA6.Propiolactones and propiosultones>
NO

>  <NA1.Acyl halides>
NO

>  <QSAR13.Mutagenic activity in Salmonella typhimurium TA100;  ?,?-unsaturated  aliphatic aldehydes.>
NO

>  <NA5.S or N mustard>
NO

>  <NA17.Thiocarbonyl (Nongenotoxic carcinogens)>
NO

>  <NA27.Nitro aromatic>
NO

>  <NA19.Heterocyclic Polycyclic Aromatic Hydrocarbons>
NO

>  <NA8.Aliphatic halogens>
NO

>  <NA14.Aliphatic azo and azoxy>
NO

>  <NA11.Simple aldehyde>
NO

>  <NA26.Aromatic ring N-oxide>
NO

>  <NA31a.Halogenated benzene  (Nongenotoxic carcinogens)>
NO

>  <QSAR13 applicable?.?,? unsaturated aldehyde>
NO

>  <NA9.Alkyl nitrite>
NO

>  <NA28bis.Aromatic mono- and dialkylamine>
NO

>  <NA21.Alkyl and aryl N-nitroso groups>
NO

>  <NA10.?,? unsaturated carbonyls>
YES

>  <NA31c.Halogenated dibenzodioxins  (Nongenotoxic carcinogens)>
NO

$$$$
iss2_532
  ACD/Labs1026071639

 67 71  0  0  1  0  0  0  0  0  1 V2000
    4.7296   -1.8992    0.0000 C   0  0  0  0  0  0  0  0  0  0  0  0
    6.3549   -1.3513    0.0000 C   0  0  0  0  0  0  0  0  0  0  0  0
    7.7427   -2.1000    0.0000 C   0  0  0  0  0  0  0  0  0  0  0  0
    9.1854   -1.5157    0.0000 C   0  0  0  0  0  0  0  0  0  0  0  0
   10.3541   -2.4653    0.0000 C   0  0  0  0  0  0  0  0  0  0  0  0
   10.7193   -5.2592    0.0000 O   0  0  0  0  0  0  0  0  0  0  0  0
   11.8332   -5.7523    0.0000 C   0  0  0  0  0  0  0  0  0  0  0  0
   13.0019   -4.7844    0.0000 C   0  0  0  0  0  0  0  0  0  0  0  0
   12.8741   -3.3966    0.0000 C   0  0  0  0  0  0  0  0  0  0  0  0
   11.5776   -2.4287    0.0000 C   0  0  0  0  0  0  0  0  0  0  0  0
   14.4446   -5.4053    0.0000 C   0  0  0  0  0  0  0  0  0  0  0  0
    4.4922   -3.5609    0.0000 C   0  0  0  0  0  0  0  0  0  0  0  0
    2.9035   -4.3462    0.0000 C   0  0  0  0  0  0  0  0  0  0  0  0
    3.2322   -5.9897    0.0000 C   0  0  0  0  0  0  0  0  0  0  0  0
    2.1183   -3.9444    0.0000 O   0  0  0  0  0  0  0  0  0  0  0  0
    2.4287   -5.1314    0.0000 H   0  0  0  0  0  0  0  0  0  0  0  0
    2.0635   -7.1218    0.0000 C   0  0  0  0  0  0  0  0  0  0  0  0
    2.9766   -8.5097    0.0000 C   0  0  0  0  0  0  0  0  0  0  0  0
    3.1592   -9.7514    0.0000 C   0  0  0  0  0  0  0  0  0  0  0  0
    3.3053  -11.0297    0.0000 O   0  0  0  0  0  0  0  0  0  0  0  0
    4.8209  -11.8150    0.0000 C   0  0  0  0  0  0  0  0  0  0  0  0
    6.3914  -11.9976    0.0000 C   0  0  0  0  0  0  0  0  0  0  0  0
    6.9940  -10.7193    0.0000 C   0  0  0  0  0  0  0  0  0  0  0  0
    6.0444  -10.2080    0.0000 C   0  0  0  0  0  0  0  0  0  0  0  0
    4.8209  -11.0115    0.0000 O   0  0  0  0  0  0  0  0  0  0  0  0
    3.8531  -13.1115    0.0000 C   0  0  0  0  0  0  0  0  0  0  0  0
    8.3453   -9.9341    0.0000 C   0  0  0  0  0  0  0  0  0  0  0  0
    8.3636   -8.6375    0.0000 C   0  0  0  0  0  0  0  0  0  0  0  0
    7.2131   -8.1079    0.0000 C   0  0  0  0  0  0  0  0  0  0  0  0
    6.1905   -8.9662    0.0000 C   0  0  0  0  0  0  0  0  0  0  0  0
    9.6601  -10.5549    0.0000 C   0  0  0  0  0  0  0  0  0  0  0  0
   10.8289   -9.7514    0.0000 C   0  0  0  0  0  0  0  0  0  0  0  0
   10.7558   -8.2175    0.0000 C   0  0  0  0  0  0  0  0  0  0  0  0
    9.5506   -7.7245    0.0000 C   0  0  0  0  0  0  0  0  0  0  0  0
    7.2679   -6.7931    0.0000 O   0  0  0  0  0  0  0  0  0  0  0  0
    9.3862   -6.3366    0.0000 O   0  0  0  0  0  0  0  0  0  0  0  0
    9.7332  -11.9793    0.0000 O   0  0  0  0  0  0  0  0  0  0  0  0
   11.9793   -7.2679    0.0000 N   0  0  0  0  0  0  0  0  0  0  0  0
    5.1496   -8.6193    0.0000 C   0  0  0  0  0  0  0  0  0  0  0  0
    6.9758  -12.9289    0.0000 O   0  0  0  0  0  0  0  0  0  0  0  0
    1.3696   -2.7392    0.0000 C   0  0  0  0  0  0  0  0  0  0  0  0
    1.4244   -2.2279    0.0000 O   0  0  0  0  0  0  0  0  0  0  0  0
    0.4017   -2.1000    0.0000 C   0  0  0  0  0  0  0  0  0  0  0  0
   12.1802  -10.4819    0.0000 C   0  0  0  0  0  0  0  0  0  0  0  0
   13.3489   -9.9158    0.0000 N   0  0  0  0  0  0  0  0  0  0  0  0
    9.3680   -0.0000    0.0000 C   0  0  0  0  0  0  0  0  0  0  0  0
    9.2584   -2.5018    0.0000 H   0  0  0  0  0  0  0  0  0  0  0  0
    6.3731   -0.2191    0.0000 H   0  0  0  0  0  0  0  0  0  0  0  0
    6.5192   -2.1548    0.0000 C   0  0  0  0  0  0  0  0  0  0  0  0
    4.9122   -1.0774    0.0000 H   0  0  0  0  0  0  0  0  0  0  0  0
    3.8531   -1.1870    0.0000 O   0  0  0  0  0  0  0  0  0  0  0  0
    3.8531   -5.2957    0.0000 H   0  0  0  0  0  0  0  0  0  0  0  0
    3.9627   -6.3184    0.0000 C   0  0  0  0  0  0  0  0  0  0  0  0
    5.2957   -4.0540    0.0000 C   0  0  0  0  0  0  0  0  0  0  0  0
    4.9670   -3.9261    0.0000 H   0  0  0  0  0  0  0  0  0  0  0  0
    7.7427   -3.5244    0.0000 O   0  0  0  0  0  0  0  0  0  0  0  0
    7.8523   -1.0591    0.0000 H   0  0  0  0  0  0  0  0  0  0  0  0
    1.2418   -6.0627    0.0000 H   0  0  0  0  0  0  0  0  0  0  0  0
    1.1139   -7.1584    0.0000 O   0  0  0  0  0  0  0  0  0  0  0  0
    0.0000   -8.1262    0.0000 C   0  0  0  0  0  0  0  0  0  0  0  0
   14.5359  -10.6828    0.0000 N   0  0  0  0  0  0  0  0  0  0  0  0
   14.4263  -12.2167    0.0000 C   0  0  0  0  0  0  0  0  0  0  0  0
   15.8324  -12.9837    0.0000 C   0  0  0  0  0  0  0  0  0  0  0  0
   16.9829  -12.3263    0.0000 N   0  0  0  0  0  0  0  0  0  0  0  0
   17.1655  -10.9384    0.0000 C   0  0  0  0  0  0  0  0  0  0  0  0
   15.8689   -9.9888    0.0000 C   0  0  0  0  0  0  0  0  0  0  0  0
   18.2611  -13.1480    0.0000 C   0  0  0  0  0  0  0  0  0  0  0  0
  1  2  1  0  0  0  0
  1 12  1  0  0  0  0
  1 50  1  1  0  0  0
  1 51  1  6  0  0  0
  2  3  1  0  0  0  0
  2 48  1  1  0  0  0
  2 49  1  6  0  0  0
  3  4  1  0  0  0  0
  3 56  1  6  0  0  0
  3 57  1  1  0  0  0
  4  5  1  0  0  0  0
  4 46  1  1  0  0  0
  4 47  1  6  0  0  0
  5 10  2  0  0  0  0
  6  7  2  0  0  0  0
  7  8  1  0  0  0  0
  7 38  1  0  0  0  0
  8  9  2  0  0  0  0
  8 11  1  0  0  0  0
  9 10  1  0  0  0  0
 12 13  1  0  0  0  0
 12 54  1  1  0  0  0
 12 55  1  6  0  0  0
 13 14  1  0  0  0  0
 13 15  1  1  0  0  0
 13 16  1  6  0  0  0
 14 17  1  0  0  0  0
 14 52  1  1  0  0  0
 14 53  1  6  0  0  0
 15 41  1  0  0  0  0
 17 18  1  0  0  0  0
 17 58  1  1  0  0  0
 17 59  1  6  0  0  0
 18 19  2  0  0  0  0
 19 20  1  0  0  0  0
 21 20  1  1  0  0  0
 21 22  1  0  0  0  0
 21 25  1  0  0  0  0
 21 26  1  6  0  0  0
 22 23  1  0  0  0  0
 22 40  2  0  0  0  0
 23 24  2  0  0  0  0
 23 27  1  0  0  0  0
 24 25  1  0  0  0  0
 24 30  1  0  0  0  0
 27 28  2  0  0  0  0
 27 31  1  0  0  0  0
 28 29  1  0  0  0  0
 28 34  1  0  0  0  0
 29 30  2  0  0  0  0
 29 35  1  0  0  0  0
 30 39  1  0  0  0  0
 31 32  2  0  0  0  0
 31 37  1  0  0  0  0
 32 33  1  0  0  0  0
 32 44  1  0  0  0  0
 33 34  2  0  0  0  0
 33 38  1  0  0  0  0
 34 36  1  0  0  0  0
 41 42  2  0  0  0  0
 41 43  1  0  0  0  0
 44 45  2  0  0  0  0
 45 61  1  0  0  0  0
 59 60  1  0  0  0  0
 61 62  1  0  0  0  0
 61 66  1  0  0  0  0
 62 63  1  0  0  0  0
 63 64  1  0  0  0  0
 64 65  1  0  0  0  0
 64 67  1  0  0  0  0
 65 66  1  0  0  0  0
M  END
>  <ID>
40

>  <Formula>
C43H58N4O12

>  <FW>
822.9404

>  <NA28.Primary aromatic amine, hydroxyl amine and its derived esters (with restrictions)>
NO

>  <NA15.Isocyanate and isothiocyanate groups>
NO

>  <NA25.Aromatic nitroso group>
NO

>  <SAL_iss2_>
0.0

>  <NA20.(Poly) Halogenated Cycloalkanes (Nongenotoxic carcinogens)>
NO

>  <Proceed with QSAR6 and QSAR8?.User input>
NO

>  <Canc_iss2_>
3.0

>  <QSAR8.Carcinogenicity in rodents (mice, rats); aromatic amines>
NO

>  <NA30.Coumarins and Furocoumarins>
NO

>  <NA31b.Halogenated PAH (naphthalenes, biphenyls, diphenyls)  (Nongenotoxic carcinogens)>
NO

>  <NA22.Azide and triazene groups>
NO

>  <QSAR6,8 applicable?.Aromatic amine without sulfonic group on the same ring>
YES

>  <ar-N=CH2.Derived aromatic amines>
NO

>  <NA13.Hydrazine>
YES

>  <NA24.?,? unsaturated alkoxy (linear)>
NO

>  <NA28ter.Aromatic N-acyl amine>
NO

>  <Title>
iss2_532

>  <NA16.Alkyl carbamate and thiocarbamate>
NO

>  <Substance ID>
iss2_532

>  <Proceed with QSAR13?.User input>
NO

>  <NA2.Alkyl (C<5) or benzyl ester of sulphonic or phosphonic acid>
NO

>  <NA12.Quinones>
NO

>  <QSAR6.Mutagenic activity in Salmonella typhimurium TA100, with S9 metabolic activation; aromatic amines.>
NO

>  <aN=Na.Aromatic diazo>
NO

>  <NA29.Aromatic diazo>
NO

>  <NA7.Epoxides and aziridines>
NO

>  <NA4.Monohaloalkene>
NO

>  <NA18.Polycyclic Aromatic Hydrocarbons>
NO

>  <NA3.N-methylol derivatives>
NO

>  <NA23.Aliphatic N-nitro>
NO

>  <NA6.Propiolactones and propiosultones>
NO

>  <NA1.Acyl halides>
NO

>  <QSAR13.Mutagenic activity in Salmonella typhimurium TA100;  ?,?-unsaturated  aliphatic aldehydes.>
NO

>  <NA5.S or N mustard>
NO

>  <NA17.Thiocarbonyl (Nongenotoxic carcinogens)>
NO

>  <NA27.Nitro aromatic>
NO

>  <NA19.Heterocyclic Polycyclic Aromatic Hydrocarbons>
NO

>  <NA8.Aliphatic halogens>
NO

>  <NA14.Aliphatic azo and azoxy>
NO

>  <NA11.Simple aldehyde>
NO

>  <NA26.Aromatic ring N-oxide>
NO

>  <NA31a.Halogenated benzene  (Nongenotoxic carcinogens)>
NO

>  <QSAR13 applicable?.?,? unsaturated aldehyde>
NO

>  <NA9.Alkyl nitrite>
NO

>  <NA28bis.Aromatic mono- and dialkylamine>
NO

>  <NA21.Alkyl and aryl N-nitroso groups>
NO

>  <NA10.?,? unsaturated carbonyls>
YES

>  <NA31c.Halogenated dibenzodioxins  (Nongenotoxic carcinogens)>
NO

$$$$
